*SPEF "ieee 1481-1999"
*DESIGN "decode_all"
*DATE "19:06:16 Friday January 16, 2026"
*VENDOR "The OpenROAD Project"
*PROGRAM "OpenROAD"
*VERSION "edf00dff99f6c40d67a30c0e22a8191c5d2ed9d6"
*DESIGN_FLOW "NAME_SCOPE LOCAL" "PIN_CAP NONE"
*DIVIDER /
*DELIMITER :
*BUS_DELIMITER []
*T_UNIT 1 NS
*C_UNIT 1 PF
*R_UNIT 1 OHM
*L_UNIT 1 HENRY

*NAME_MAP
*3 day[0]
*4 day[1]
*5 day[2]
*6 day[3]
*7 day[4]
*8 hour[0]
*9 hour[1]
*10 hour[2]
*11 hour[3]
*12 hour[4]
*13 led_day[0]
*14 led_day[10]
*15 led_day[11]
*16 led_day[12]
*17 led_day[13]
*18 led_day[1]
*19 led_day[2]
*20 led_day[3]
*21 led_day[4]
*22 led_day[5]
*23 led_day[6]
*24 led_day[7]
*25 net115
*26 led_day[9]
*27 led_hour[0]
*28 led_hour[10]
*29 led_hour[11]
*30 led_hour[12]
*31 led_hour[13]
*32 led_hour[1]
*33 led_hour[2]
*34 led_hour[3]
*35 led_hour[4]
*36 led_hour[5]
*37 led_hour[6]
*38 led_hour[7]
*39 net116
*40 led_hour[9]
*41 led_min[0]
*42 led_min[10]
*43 led_min[11]
*44 led_min[12]
*45 led_min[13]
*46 led_min[1]
*47 led_min[2]
*48 led_min[3]
*49 led_min[4]
*50 led_min[5]
*51 led_min[6]
*52 led_min[7]
*53 led_min[8]
*54 led_min[9]
*55 led_month[0]
*56 led_month[10]
*57 led_month[11]
*58 led_month[12]
*59 net117
*60 led_month[1]
*61 led_month[2]
*62 led_month[3]
*63 led_month[4]
*64 led_month[5]
*65 led_month[6]
*66 led_month[7]
*67 net113
*68 net114
*69 led_sec[0]
*70 led_sec[10]
*71 led_sec[11]
*72 led_sec[12]
*73 led_sec[13]
*74 led_sec[1]
*75 led_sec[2]
*76 led_sec[3]
*77 led_sec[4]
*78 led_sec[5]
*79 led_sec[6]
*80 led_sec[7]
*81 led_sec[8]
*82 led_sec[9]
*83 led_year[0]
*84 led_year[10]
*85 led_year[11]
*86 led_year[12]
*87 led_year[13]
*88 led_year[1]
*89 led_year[2]
*90 led_year[3]
*91 led_year[4]
*92 led_year[5]
*93 led_year[6]
*94 led_year[7]
*95 led_year[8]
*96 led_year[9]
*97 minute[0]
*98 minute[1]
*99 minute[2]
*100 minute[3]
*101 minute[4]
*102 minute[5]
*103 month[0]
*104 month[1]
*105 month[2]
*106 month[3]
*107 second[0]
*108 second[1]
*109 second[2]
*110 second[3]
*111 second[4]
*112 second[5]
*113 year[0]
*114 year[1]
*115 year[2]
*116 year[3]
*117 year[4]
*118 year[5]
*119 year[6]
*120 _000_
*121 _001_
*122 _002_
*123 _003_
*124 _004_
*125 _005_
*126 _006_
*127 _007_
*128 _008_
*129 _009_
*130 _010_
*131 _011_
*132 _012_
*133 _013_
*134 _014_
*135 _015_
*136 _016_
*137 _017_
*138 _018_
*139 _019_
*140 _020_
*141 _021_
*142 _022_
*143 _023_
*144 _024_
*145 _025_
*146 _026_
*147 _027_
*148 _028_
*149 _029_
*150 _030_
*151 _031_
*152 _032_
*153 _033_
*154 _034_
*155 _035_
*156 _036_
*157 _037_
*158 _038_
*159 _039_
*160 _040_
*161 _041_
*162 _042_
*163 _043_
*164 _044_
*165 _045_
*166 _046_
*167 _047_
*168 _048_
*169 _049_
*170 _050_
*171 _051_
*172 _052_
*173 _053_
*174 _054_
*175 _055_
*176 _056_
*177 _057_
*178 _058_
*179 _059_
*180 _060_
*181 _061_
*182 _062_
*183 _063_
*184 _064_
*185 _065_
*186 _066_
*187 _067_
*188 _068_
*189 _069_
*190 _070_
*191 _071_
*192 _072_
*193 _073_
*194 _074_
*195 _075_
*196 _076_
*197 _077_
*198 _078_
*199 _079_
*200 _080_
*201 _081_
*202 _082_
*203 _083_
*204 _084_
*205 _085_
*206 _086_
*207 _087_
*208 _088_
*209 _089_
*210 _090_
*211 _091_
*212 _092_
*213 _093_
*214 _094_
*215 _095_
*216 _096_
*217 _097_
*218 _098_
*219 _099_
*220 _100_
*221 _101_
*222 _102_
*223 _103_
*224 _104_
*225 _105_
*226 _106_
*227 _107_
*228 _108_
*229 _109_
*230 _110_
*231 _111_
*232 _112_
*233 _113_
*234 _114_
*235 _115_
*236 _116_
*237 _117_
*238 _118_
*239 _119_
*240 _120_
*241 _121_
*242 _122_
*243 _123_
*244 _124_
*245 _125_
*246 _126_
*247 _127_
*248 _128_
*249 _129_
*250 _130_
*251 _131_
*252 _132_
*253 _133_
*254 _134_
*255 _135_
*256 _136_
*257 _137_
*258 _138_
*259 _139_
*260 _140_
*261 _141_
*262 _142_
*263 _143_
*264 _144_
*265 _145_
*266 _146_
*267 _147_
*268 _148_
*269 _149_
*270 _150_
*271 _151_
*272 _152_
*273 _153_
*274 _154_
*275 _155_
*276 _156_
*277 _157_
*278 _158_
*279 _159_
*280 _160_
*281 _161_
*282 _162_
*283 _163_
*284 _164_
*285 _165_
*286 _166_
*287 _167_
*288 _168_
*289 _169_
*290 _170_
*291 _171_
*292 _172_
*293 _173_
*294 _174_
*295 _175_
*296 _176_
*297 _177_
*298 _178_
*299 _179_
*300 _180_
*301 _181_
*302 _182_
*303 _183_
*304 _184_
*305 _185_
*306 _186_
*307 _187_
*308 _188_
*309 _189_
*310 _190_
*311 _191_
*312 _192_
*313 _193_
*314 _194_
*315 _195_
*316 _196_
*317 _197_
*318 net1
*319 net10
*320 net100
*321 net101
*322 net102
*323 net103
*324 net104
*325 net105
*326 net106
*327 net107
*328 net108
*329 net109
*330 net11
*331 net110
*332 net111
*333 net112
*334 net12
*335 net13
*336 net14
*337 net15
*338 net16
*339 net17
*340 net18
*341 net19
*342 net2
*343 net20
*344 net21
*345 net22
*346 net23
*347 net24
*348 net25
*349 net26
*350 net27
*351 net28
*352 net29
*353 net3
*354 net30
*355 net31
*356 net32
*357 net33
*358 net34
*359 net35
*360 net36
*361 net37
*362 net38
*363 net39
*364 net4
*365 net40
*366 net41
*367 net42
*368 net43
*369 net44
*370 net45
*371 net46
*372 net47
*373 net48
*374 net49
*375 net5
*376 net50
*377 net51
*378 net52
*379 net53
*380 net54
*381 net55
*382 net56
*383 net57
*384 net58
*385 net59
*386 net6
*387 net60
*388 net61
*389 net62
*390 net63
*391 net64
*392 net65
*393 net66
*394 net67
*395 net68
*396 net69
*397 net7
*398 net70
*399 net71
*400 net72
*401 net73
*402 net74
*403 net75
*404 net76
*405 net77
*406 net78
*407 net79
*408 net8
*409 net80
*410 net81
*411 net82
*412 net83
*413 net84
*414 net85
*415 net86
*416 net87
*417 net88
*418 net89
*419 net9
*420 net90
*421 net91
*422 net92
*423 net93
*424 net94
*425 net95
*426 net96
*427 net97
*428 net98
*429 net99
*430 FILLER_0_109
*431 FILLER_0_113
*432 FILLER_0_125
*433 FILLER_0_137
*434 FILLER_0_141
*435 FILLER_0_15
*436 FILLER_0_153
*437 FILLER_0_165
*438 FILLER_0_169
*439 FILLER_0_181
*440 FILLER_0_193
*441 FILLER_0_197
*442 FILLER_0_209
*443 FILLER_0_221
*444 FILLER_0_225
*445 FILLER_0_237
*446 FILLER_0_249
*447 FILLER_0_253
*448 FILLER_0_265
*449 FILLER_0_27
*450 FILLER_0_277
*451 FILLER_0_281
*452 FILLER_0_29
*453 FILLER_0_293
*454 FILLER_0_299
*455 FILLER_0_3
*456 FILLER_0_309
*457 FILLER_0_41
*458 FILLER_0_53
*459 FILLER_0_57
*460 FILLER_0_69
*461 FILLER_0_81
*462 FILLER_0_85
*463 FILLER_0_97
*464 FILLER_10_146
*465 FILLER_10_15
*466 FILLER_10_150
*467 FILLER_10_164
*468 FILLER_10_170
*469 FILLER_10_179
*470 FILLER_10_183
*471 FILLER_10_19
*472 FILLER_10_200
*473 FILLER_10_222
*474 FILLER_10_243
*475 FILLER_10_3
*476 FILLER_10_309
*477 FILLER_10_37
*478 FILLER_10_41
*479 FILLER_10_50
*480 FILLER_10_82
*481 FILLER_10_92
*482 FILLER_11_113
*483 FILLER_11_132
*484 FILLER_11_151
*485 FILLER_11_166
*486 FILLER_11_185
*487 FILLER_11_191
*488 FILLER_11_208
*489 FILLER_11_222
*490 FILLER_11_242
*491 FILLER_11_263
*492 FILLER_11_278
*493 FILLER_11_299
*494 FILLER_11_304
*495 FILLER_11_32
*496 FILLER_11_50
*497 FILLER_11_61
*498 FILLER_11_70
*499 FILLER_11_76
*500 FILLER_11_94
*501 FILLER_12_115
*502 FILLER_12_14
*503 FILLER_12_141
*504 FILLER_12_184
*505 FILLER_12_285
*506 FILLER_12_44
*507 FILLER_12_65
*508 FILLER_13_155
*509 FILLER_13_222
*510 FILLER_13_29
*511 FILLER_13_301
*512 FILLER_13_309
*513 FILLER_1_105
*514 FILLER_1_111
*515 FILLER_1_113
*516 FILLER_1_125
*517 FILLER_1_137
*518 FILLER_1_149
*519 FILLER_1_15
*520 FILLER_1_161
*521 FILLER_1_167
*522 FILLER_1_169
*523 FILLER_1_181
*524 FILLER_1_193
*525 FILLER_1_205
*526 FILLER_1_217
*527 FILLER_1_223
*528 FILLER_1_225
*529 FILLER_1_237
*530 FILLER_1_249
*531 FILLER_1_261
*532 FILLER_1_27
*533 FILLER_1_273
*534 FILLER_1_279
*535 FILLER_1_281
*536 FILLER_1_293
*537 FILLER_1_3
*538 FILLER_1_305
*539 FILLER_1_39
*540 FILLER_1_51
*541 FILLER_1_55
*542 FILLER_1_57
*543 FILLER_1_69
*544 FILLER_1_81
*545 FILLER_1_93
*546 FILLER_2_109
*547 FILLER_2_121
*548 FILLER_2_133
*549 FILLER_2_139
*550 FILLER_2_141
*551 FILLER_2_15
*552 FILLER_2_153
*553 FILLER_2_165
*554 FILLER_2_177
*555 FILLER_2_189
*556 FILLER_2_195
*557 FILLER_2_197
*558 FILLER_2_209
*559 FILLER_2_221
*560 FILLER_2_233
*561 FILLER_2_245
*562 FILLER_2_251
*563 FILLER_2_253
*564 FILLER_2_265
*565 FILLER_2_27
*566 FILLER_2_277
*567 FILLER_2_289
*568 FILLER_2_29
*569 FILLER_2_3
*570 FILLER_2_301
*571 FILLER_2_41
*572 FILLER_2_53
*573 FILLER_2_65
*574 FILLER_2_77
*575 FILLER_2_83
*576 FILLER_2_85
*577 FILLER_2_97
*578 FILLER_3_105
*579 FILLER_3_111
*580 FILLER_3_113
*581 FILLER_3_125
*582 FILLER_3_137
*583 FILLER_3_149
*584 FILLER_3_15
*585 FILLER_3_161
*586 FILLER_3_167
*587 FILLER_3_169
*588 FILLER_3_181
*589 FILLER_3_193
*590 FILLER_3_205
*591 FILLER_3_217
*592 FILLER_3_223
*593 FILLER_3_225
*594 FILLER_3_237
*595 FILLER_3_249
*596 FILLER_3_261
*597 FILLER_3_27
*598 FILLER_3_273
*599 FILLER_3_279
*600 FILLER_3_281
*601 FILLER_3_3
*602 FILLER_3_39
*603 FILLER_3_51
*604 FILLER_3_55
*605 FILLER_3_57
*606 FILLER_3_69
*607 FILLER_3_81
*608 FILLER_3_93
*609 FILLER_4_109
*610 FILLER_4_121
*611 FILLER_4_133
*612 FILLER_4_139
*613 FILLER_4_141
*614 FILLER_4_15
*615 FILLER_4_158
*616 FILLER_4_170
*617 FILLER_4_182
*618 FILLER_4_194
*619 FILLER_4_197
*620 FILLER_4_209
*621 FILLER_4_221
*622 FILLER_4_233
*623 FILLER_4_245
*624 FILLER_4_251
*625 FILLER_4_253
*626 FILLER_4_265
*627 FILLER_4_27
*628 FILLER_4_277
*629 FILLER_4_285
*630 FILLER_4_29
*631 FILLER_4_293
*632 FILLER_4_298
*633 FILLER_4_3
*634 FILLER_4_309
*635 FILLER_4_41
*636 FILLER_4_53
*637 FILLER_4_65
*638 FILLER_4_77
*639 FILLER_4_83
*640 FILLER_4_85
*641 FILLER_4_97
*642 FILLER_5_102
*643 FILLER_5_110
*644 FILLER_5_120
*645 FILLER_5_128
*646 FILLER_5_146
*647 FILLER_5_15
*648 FILLER_5_150
*649 FILLER_5_163
*650 FILLER_5_167
*651 FILLER_5_169
*652 FILLER_5_181
*653 FILLER_5_193
*654 FILLER_5_205
*655 FILLER_5_221
*656 FILLER_5_225
*657 FILLER_5_237
*658 FILLER_5_249
*659 FILLER_5_261
*660 FILLER_5_27
*661 FILLER_5_272
*662 FILLER_5_281
*663 FILLER_5_3
*664 FILLER_5_319
*665 FILLER_5_39
*666 FILLER_5_51
*667 FILLER_5_55
*668 FILLER_5_57
*669 FILLER_5_69
*670 FILLER_5_81
*671 FILLER_5_93
*672 FILLER_6_105
*673 FILLER_6_126
*674 FILLER_6_130
*675 FILLER_6_138
*676 FILLER_6_141
*677 FILLER_6_15
*678 FILLER_6_159
*679 FILLER_6_183
*680 FILLER_6_195
*681 FILLER_6_197
*682 FILLER_6_203
*683 FILLER_6_207
*684 FILLER_6_211
*685 FILLER_6_230
*686 FILLER_6_246
*687 FILLER_6_259
*688 FILLER_6_265
*689 FILLER_6_27
*690 FILLER_6_282
*691 FILLER_6_29
*692 FILLER_6_3
*693 FILLER_6_41
*694 FILLER_6_53
*695 FILLER_6_65
*696 FILLER_6_77
*697 FILLER_6_83
*698 FILLER_6_85
*699 FILLER_7_120
*700 FILLER_7_15
*701 FILLER_7_150
*702 FILLER_7_158
*703 FILLER_7_166
*704 FILLER_7_192
*705 FILLER_7_200
*706 FILLER_7_215
*707 FILLER_7_222
*708 FILLER_7_230
*709 FILLER_7_240
*710 FILLER_7_248
*711 FILLER_7_263
*712 FILLER_7_27
*713 FILLER_7_281
*714 FILLER_7_3
*715 FILLER_7_301
*716 FILLER_7_39
*717 FILLER_7_51
*718 FILLER_7_55
*719 FILLER_7_57
*720 FILLER_7_69
*721 FILLER_7_81
*722 FILLER_7_87
*723 FILLER_8_133
*724 FILLER_8_139
*725 FILLER_8_15
*726 FILLER_8_150
*727 FILLER_8_174
*728 FILLER_8_189
*729 FILLER_8_194
*730 FILLER_8_197
*731 FILLER_8_205
*732 FILLER_8_234
*733 FILLER_8_248
*734 FILLER_8_27
*735 FILLER_8_29
*736 FILLER_8_3
*737 FILLER_8_301
*738 FILLER_8_309
*739 FILLER_8_41
*740 FILLER_8_48
*741 FILLER_8_60
*742 FILLER_8_72
*743 FILLER_8_85
*744 FILLER_8_93
*745 FILLER_9_105
*746 FILLER_9_111
*747 FILLER_9_113
*748 FILLER_9_118
*749 FILLER_9_130
*750 FILLER_9_142
*751 FILLER_9_163
*752 FILLER_9_169
*753 FILLER_9_175
*754 FILLER_9_184
*755 FILLER_9_206
*756 FILLER_9_221
*757 FILLER_9_225
*758 FILLER_9_258
*759 FILLER_9_274
*760 FILLER_9_32
*761 FILLER_9_53
*762 FILLER_9_57
*763 FILLER_9_68
*764 FILLER_9_7
*765 FILLER_9_82
*766 FILLER_9_87
*767 FILLER_9_95
*768 PHY_EDGE_ROW_0_Left_14
*769 PHY_EDGE_ROW_0_Right_0
*770 PHY_EDGE_ROW_10_Left_24
*771 PHY_EDGE_ROW_10_Right_10
*772 PHY_EDGE_ROW_11_Left_25
*773 PHY_EDGE_ROW_11_Right_11
*774 PHY_EDGE_ROW_12_Left_26
*775 PHY_EDGE_ROW_12_Right_12
*776 PHY_EDGE_ROW_13_Left_27
*777 PHY_EDGE_ROW_13_Right_13
*778 PHY_EDGE_ROW_1_Left_15
*779 PHY_EDGE_ROW_1_Right_1
*780 PHY_EDGE_ROW_2_Left_16
*781 PHY_EDGE_ROW_2_Right_2
*782 PHY_EDGE_ROW_3_Left_17
*783 PHY_EDGE_ROW_3_Right_3
*784 PHY_EDGE_ROW_4_Left_18
*785 PHY_EDGE_ROW_4_Right_4
*786 PHY_EDGE_ROW_5_Left_19
*787 PHY_EDGE_ROW_5_Right_5
*788 PHY_EDGE_ROW_6_Left_20
*789 PHY_EDGE_ROW_6_Right_6
*790 PHY_EDGE_ROW_7_Left_21
*791 PHY_EDGE_ROW_7_Right_7
*792 PHY_EDGE_ROW_8_Left_22
*793 PHY_EDGE_ROW_8_Right_8
*794 PHY_EDGE_ROW_9_Left_23
*795 PHY_EDGE_ROW_9_Right_9
*796 TAP_TAPCELL_ROW_0_28
*797 TAP_TAPCELL_ROW_0_29
*798 TAP_TAPCELL_ROW_0_30
*799 TAP_TAPCELL_ROW_0_31
*800 TAP_TAPCELL_ROW_0_32
*801 TAP_TAPCELL_ROW_0_33
*802 TAP_TAPCELL_ROW_0_34
*803 TAP_TAPCELL_ROW_0_35
*804 TAP_TAPCELL_ROW_0_36
*805 TAP_TAPCELL_ROW_0_37
*806 TAP_TAPCELL_ROW_0_38
*807 TAP_TAPCELL_ROW_10_88
*808 TAP_TAPCELL_ROW_10_89
*809 TAP_TAPCELL_ROW_10_90
*810 TAP_TAPCELL_ROW_10_91
*811 TAP_TAPCELL_ROW_10_92
*812 TAP_TAPCELL_ROW_10_93
*813 TAP_TAPCELL_ROW_11_94
*814 TAP_TAPCELL_ROW_11_95
*815 TAP_TAPCELL_ROW_11_96
*816 TAP_TAPCELL_ROW_11_97
*817 TAP_TAPCELL_ROW_11_98
*818 TAP_TAPCELL_ROW_12_100
*819 TAP_TAPCELL_ROW_12_101
*820 TAP_TAPCELL_ROW_12_102
*821 TAP_TAPCELL_ROW_12_103
*822 TAP_TAPCELL_ROW_12_104
*823 TAP_TAPCELL_ROW_12_99
*824 TAP_TAPCELL_ROW_13_105
*825 TAP_TAPCELL_ROW_13_106
*826 TAP_TAPCELL_ROW_13_107
*827 TAP_TAPCELL_ROW_13_108
*828 TAP_TAPCELL_ROW_13_109
*829 TAP_TAPCELL_ROW_13_110
*830 TAP_TAPCELL_ROW_13_111
*831 TAP_TAPCELL_ROW_13_112
*832 TAP_TAPCELL_ROW_13_113
*833 TAP_TAPCELL_ROW_13_114
*834 TAP_TAPCELL_ROW_13_115
*835 TAP_TAPCELL_ROW_1_39
*836 TAP_TAPCELL_ROW_1_40
*837 TAP_TAPCELL_ROW_1_41
*838 TAP_TAPCELL_ROW_1_42
*839 TAP_TAPCELL_ROW_1_43
*840 TAP_TAPCELL_ROW_2_44
*841 TAP_TAPCELL_ROW_2_45
*842 TAP_TAPCELL_ROW_2_46
*843 TAP_TAPCELL_ROW_2_47
*844 TAP_TAPCELL_ROW_2_48
*845 TAP_TAPCELL_ROW_2_49
*846 TAP_TAPCELL_ROW_3_50
*847 TAP_TAPCELL_ROW_3_51
*848 TAP_TAPCELL_ROW_3_52
*849 TAP_TAPCELL_ROW_3_53
*850 TAP_TAPCELL_ROW_3_54
*851 TAP_TAPCELL_ROW_4_55
*852 TAP_TAPCELL_ROW_4_56
*853 TAP_TAPCELL_ROW_4_57
*854 TAP_TAPCELL_ROW_4_58
*855 TAP_TAPCELL_ROW_4_59
*856 TAP_TAPCELL_ROW_4_60
*857 TAP_TAPCELL_ROW_5_61
*858 TAP_TAPCELL_ROW_5_62
*859 TAP_TAPCELL_ROW_5_63
*860 TAP_TAPCELL_ROW_5_64
*861 TAP_TAPCELL_ROW_5_65
*862 TAP_TAPCELL_ROW_6_66
*863 TAP_TAPCELL_ROW_6_67
*864 TAP_TAPCELL_ROW_6_68
*865 TAP_TAPCELL_ROW_6_69
*866 TAP_TAPCELL_ROW_6_70
*867 TAP_TAPCELL_ROW_6_71
*868 TAP_TAPCELL_ROW_7_72
*869 TAP_TAPCELL_ROW_7_73
*870 TAP_TAPCELL_ROW_7_74
*871 TAP_TAPCELL_ROW_7_75
*872 TAP_TAPCELL_ROW_7_76
*873 TAP_TAPCELL_ROW_8_77
*874 TAP_TAPCELL_ROW_8_78
*875 TAP_TAPCELL_ROW_8_79
*876 TAP_TAPCELL_ROW_8_80
*877 TAP_TAPCELL_ROW_8_81
*878 TAP_TAPCELL_ROW_8_82
*879 TAP_TAPCELL_ROW_9_83
*880 TAP_TAPCELL_ROW_9_84
*881 TAP_TAPCELL_ROW_9_85
*882 TAP_TAPCELL_ROW_9_86
*883 TAP_TAPCELL_ROW_9_87
*884 _198_
*885 _199_
*886 _200_
*887 _201_
*888 _202_
*889 _203_
*890 _204_
*891 _205_
*892 _206_
*893 _207_
*894 _208_
*895 _209_
*896 _210_
*897 _211_
*898 _212_
*899 _213_
*900 _214_
*901 _215_
*902 _216_
*903 _217_
*904 _218_
*905 _219_
*906 _220_
*907 _221_
*908 _222_
*909 _223_
*910 _224_
*911 _225_
*912 _226_
*913 _227_
*914 _228_
*915 _229_
*916 _230_
*917 _231_
*918 _232_
*919 _233_
*920 _234_
*921 _235_
*922 _236_
*923 _237_
*924 _238_
*925 _239_
*926 _240_
*927 _241_
*928 _242_
*929 _243_
*930 _244_
*931 _245_
*932 _246_
*933 _247_
*934 _248_
*935 _249_
*936 _250_
*937 _251_
*938 _252_
*939 _253_
*940 _254_
*941 _255_
*942 _256_
*943 _257_
*944 _258_
*945 _259_
*946 _260_
*947 _261_
*948 _262_
*949 _263_
*950 _264_
*951 _265_
*952 _266_
*953 _267_
*954 _268_
*955 _269_
*956 _270_
*957 _271_
*958 _272_
*959 _273_
*960 _274_
*961 _275_
*962 _276_
*963 _277_
*964 _278_
*965 _279_
*966 _280_
*967 _281_
*968 _282_
*969 _283_
*970 _284_
*971 _285_
*972 _286_
*973 _287_
*974 _288_
*975 _289_
*976 _290_
*977 _291_
*978 _292_
*979 _293_
*980 _294_
*981 _295_
*982 _296_
*983 _297_
*984 _298_
*985 _299_
*986 _300_
*987 _301_
*988 _302_
*989 _303_
*990 _304_
*991 _305_
*992 _306_
*993 _307_
*994 _308_
*995 _309_
*996 _310_
*997 _311_
*998 _312_
*999 _313_
*1000 _314_
*1001 _315_
*1002 _316_
*1003 _317_
*1004 _318_
*1005 _319_
*1006 _320_
*1007 _321_
*1008 _322_
*1009 _323_
*1010 _324_
*1011 _325_
*1012 _326_
*1013 _327_
*1014 _328_
*1015 _329_
*1016 _330_
*1017 _331_
*1018 _332_
*1019 _333_
*1020 _334_
*1021 _335_
*1022 _336_
*1023 _337_
*1024 _338_
*1025 _339_
*1026 _340_
*1027 _341_
*1028 _342_
*1029 _343_
*1030 _344_
*1031 _345_
*1032 _346_
*1033 _347_
*1034 _348_
*1035 _349_
*1036 _350_
*1037 _351_
*1038 _352_
*1039 _353_
*1040 _354_
*1041 _355_
*1042 _356_
*1043 _357_
*1044 _358_
*1045 _359_
*1046 _360_
*1047 _361_
*1048 _362_
*1049 _363_
*1050 _364_
*1051 _365_
*1052 _366_
*1053 _367_
*1054 _368_
*1055 _369_
*1056 _370_
*1057 _371_
*1058 _372_
*1059 _373_
*1060 _374_
*1061 _375_
*1062 _376_
*1063 _377_
*1064 _378_
*1065 _379_
*1066 _380_
*1067 _381_
*1068 _382_
*1069 _383_
*1070 _384_
*1071 _385_
*1072 _386_
*1073 _387_
*1074 _388_
*1075 _389_
*1076 _390_
*1077 _391_
*1078 _392_
*1079 _393_
*1080 _394_
*1081 _395_
*1082 _396_
*1083 _397_
*1084 _398_
*1085 _399_
*1086 _400_
*1087 _401_
*1088 _402_
*1089 _403_
*1090 _404_
*1091 _405_
*1092 _406_
*1093 _407_
*1094 _408_
*1095 _409_
*1096 _410_
*1097 _411_
*1098 _412_
*1099 _413_
*1100 _414_
*1101 _415_
*1102 _416_
*1103 _417_
*1104 _418_
*1105 _419_
*1106 _420_
*1107 _421_
*1108 _422_
*1109 _423_
*1110 _424_
*1111 _425_
*1112 _426_
*1113 _427_
*1114 _428_
*1115 _429_
*1116 _430_
*1117 _431_
*1118 _432_
*1119 _433_
*1120 _434_
*1121 _435_
*1122 _436_
*1123 _437_
*1124 _438_
*1125 _439_
*1126 _440_
*1127 _441_
*1128 _442_
*1129 _443_
*1130 _444_
*1131 _445_
*1132 _446_
*1133 _447_
*1134 _448_
*1135 _449_
*1136 _450_
*1137 _451_
*1138 _452_
*1139 _453_
*1140 _454_
*1141 _455_
*1142 _456_
*1143 _457_
*1144 _458_
*1145 _459_
*1146 _460_
*1147 _461_
*1148 _462_
*1149 _463_
*1150 _464_
*1151 _465_
*1152 _466_
*1153 _467_
*1154 _468_
*1155 _469_
*1156 _470_
*1157 _471_
*1158 _477_
*1159 _478_
*1160 _479_
*1161 decode_all_113
*1162 decode_all_114
*1163 decode_all_115
*1164 decode_all_116
*1165 decode_all_117
*1166 input1
*1167 input10
*1168 input11
*1169 input12
*1170 input13
*1171 input14
*1172 input15
*1173 input16
*1174 input17
*1175 input18
*1176 input19
*1177 input2
*1178 input20
*1179 input21
*1180 input22
*1181 input23
*1182 input24
*1183 input25
*1184 input26
*1185 input27
*1186 input28
*1187 input29
*1188 input3
*1189 input30
*1190 input31
*1191 input32
*1192 input33
*1193 input4
*1194 input5
*1195 input6
*1196 input7
*1197 input8
*1198 input9
*1199 output100
*1200 output101
*1201 output102
*1202 output103
*1203 output104
*1204 output105
*1205 output106
*1206 output107
*1207 output108
*1208 output109
*1209 output110
*1210 output111
*1211 output112
*1212 output34
*1213 output35
*1214 output36
*1215 output37
*1216 output38
*1217 output39
*1218 output40
*1219 output41
*1220 output42
*1221 output43
*1222 output44
*1223 output45
*1224 output46
*1225 output47
*1226 output48
*1227 output49
*1228 output50
*1229 output51
*1230 output52
*1231 output53
*1232 output54
*1233 output55
*1234 output56
*1235 output57
*1236 output58
*1237 output59
*1238 output60
*1239 output61
*1240 output62
*1241 output63
*1242 output64
*1243 output65
*1244 output66
*1245 output67
*1246 output68
*1247 output69
*1248 output70
*1249 output71
*1250 output72
*1251 output73
*1252 output74
*1253 output75
*1254 output76
*1255 output77
*1256 output78
*1257 output79
*1258 output80
*1259 output81
*1260 output82
*1261 output83
*1262 output84
*1263 output85
*1264 output86
*1265 output87
*1266 output88
*1267 output89
*1268 output90
*1269 output91
*1270 output92
*1271 output93
*1272 output94
*1273 output95
*1274 output96
*1275 output97
*1276 output98
*1277 output99

*PORTS
day[0] I
day[1] I
day[2] I
day[3] I
day[4] I
hour[0] I
hour[1] I
hour[2] I
hour[3] I
hour[4] I
led_day[0] O
led_day[10] O
led_day[11] O
led_day[12] O
led_day[13] O
led_day[1] O
led_day[2] O
led_day[3] O
led_day[4] O
led_day[5] O
led_day[6] O
led_day[7] O
led_day[8] O
led_day[9] O
led_hour[0] O
led_hour[10] O
led_hour[11] O
led_hour[12] O
led_hour[13] O
led_hour[1] O
led_hour[2] O
led_hour[3] O
led_hour[4] O
led_hour[5] O
led_hour[6] O
led_hour[7] O
led_hour[8] O
led_hour[9] O
led_min[0] O
led_min[10] O
led_min[11] O
led_min[12] O
led_min[13] O
led_min[1] O
led_min[2] O
led_min[3] O
led_min[4] O
led_min[5] O
led_min[6] O
led_min[7] O
led_min[8] O
led_min[9] O
led_month[0] O
led_month[10] O
led_month[11] O
led_month[12] O
led_month[13] O
led_month[1] O
led_month[2] O
led_month[3] O
led_month[4] O
led_month[5] O
led_month[6] O
led_month[7] O
led_month[8] O
led_month[9] O
led_sec[0] O
led_sec[10] O
led_sec[11] O
led_sec[12] O
led_sec[13] O
led_sec[1] O
led_sec[2] O
led_sec[3] O
led_sec[4] O
led_sec[5] O
led_sec[6] O
led_sec[7] O
led_sec[8] O
led_sec[9] O
led_year[0] O
led_year[10] O
led_year[11] O
led_year[12] O
led_year[13] O
led_year[1] O
led_year[2] O
led_year[3] O
led_year[4] O
led_year[5] O
led_year[6] O
led_year[7] O
led_year[8] O
led_year[9] O
minute[0] I
minute[1] I
minute[2] I
minute[3] I
minute[4] I
minute[5] I
month[0] I
month[1] I
month[2] I
month[3] I
second[0] I
second[1] I
second[2] I
second[3] I
second[4] I
second[5] I
year[0] I
year[1] I
year[2] I
year[3] I
year[4] I
year[5] I
year[6] I

*D_NET *3 0.00149155
*CONN
*P day[0] I
*I *1166:A I *D sky130_fd_sc_hd__buf_2
*CAP
1 day[0] 0.000598414
2 *1166:A 0.000598414
3 *1166:A *1177:A 0.000294716
4 *1166:A *1193:A 0
5 *1166:A *353:14 0
*RES
1 day[0] *1166:A 22.7026 
*END

*D_NET *4 0.00238407
*CONN
*P day[1] I
*I *1177:A I *D sky130_fd_sc_hd__clkbuf_2
*CAP
1 day[1] 0.000473647
2 *1177:A 0.000473647
3 *1177:A *1188:A 0.000293424
4 *1177:A *1193:A 2.72155e-05
5 *1177:A *1194:A 3.22304e-05
6 *1177:A *318:6 5.76121e-05
7 *1177:A *375:8 0.000731577
8 *1166:A *1177:A 0.000294716
*RES
1 day[1] *1177:A 28.4277 
*END

*D_NET *5 0.00205003
*CONN
*P day[2] I
*I *1188:A I *D sky130_fd_sc_hd__clkbuf_2
*CAP
1 day[2] 0.000414472
2 *1188:A 0.000414472
3 *1188:A *1174:A 0
4 *1188:A *1175:A 3.34295e-05
5 *1188:A *1193:A 0.000236364
6 *1188:A *1194:A 9.35918e-05
7 *1188:A *110:17 0.00024425
8 *1188:A *340:8 0.000320024
9 *1177:A *1188:A 0.000293424
*RES
1 day[2] *1188:A 26.605 
*END

*D_NET *6 0.00105659
*CONN
*P day[3] I
*I *1193:A I *D sky130_fd_sc_hd__clkbuf_2
*CAP
1 day[3] 0.000239823
2 *1193:A 0.000239823
3 *1193:A *1174:A 5.06018e-05
4 *1193:A *1194:A 0.000262762
5 *1166:A *1193:A 0
6 *1177:A *1193:A 2.72155e-05
7 *1188:A *1193:A 0.000236364
*RES
1 day[3] *1193:A 18.5553 
*END

*D_NET *7 0.000910777
*CONN
*P day[4] I
*I *1194:A I *D sky130_fd_sc_hd__buf_2
*CAP
1 day[4] 0.000131674
2 *1194:A 0.000131674
3 *1194:A *1174:A 0.000258845
4 *1177:A *1194:A 3.22304e-05
5 *1188:A *1194:A 9.35918e-05
6 *1193:A *1194:A 0.000262762
*RES
1 day[4] *1194:A 19.1056 
*END

*D_NET *8 0.00240533
*CONN
*P hour[0] I
*I *1195:A I *D sky130_fd_sc_hd__clkbuf_2
*CAP
1 hour[0] 0.000408389
2 *1195:A 0.000408389
3 *1195:A *1037:A 0
4 *1195:A *1178:A 0.000108287
5 *1195:A *1187:A 1.01912e-05
6 *1195:A *1189:A 2.78132e-05
7 *1195:A *1191:A 7.4445e-06
8 *1195:A *1192:A 0.000808895
9 *1195:A *1196:A 0.000179829
10 *1195:A *1198:A 0.000395562
11 *1195:A *108:19 5.0533e-05
*RES
1 hour[0] *1195:A 27.4258 
*END

*D_NET *9 0.000770549
*CONN
*P hour[1] I
*I *1196:A I *D sky130_fd_sc_hd__dlymetal6s2s_1
*CAP
1 hour[1] 0.000159614
2 *1196:A 0.000159614
3 *1196:A led_sec[10] 2.23393e-05
4 *1196:A *1197:A 0.00022801
5 *1196:A *1198:A 2.11419e-05
6 *1195:A *1196:A 0.000179829
*RES
1 hour[1] *1196:A 18.1949 
*END

*D_NET *10 0.00123275
*CONN
*P hour[2] I
*I *1197:A I *D sky130_fd_sc_hd__dlymetal6s2s_1
*CAP
1 hour[2] 0.000190673
2 *1197:A 0.000190673
3 *1197:A led_sec[10] 0.000110373
4 *1197:A led_sec[13] 0.000383289
5 *1197:A *1198:A 0.000125275
6 *1197:A *112:23 4.45982e-06
7 *1196:A *1197:A 0.00022801
*RES
1 hour[2] *1197:A 19.4092 
*END

*D_NET *11 0.00481375
*CONN
*P hour[3] I
*I *1198:A I *D sky130_fd_sc_hd__buf_1
*CAP
1 hour[3] 0.00131614
2 *1198:A 0.00131614
3 *1198:A led_sec[10] 9.35189e-05
4 *1198:A led_sec[13] 0.000335824
5 *1198:A *1018:B 0.000118773
6 *1198:A *1037:A 0
7 *1198:A *1167:A 0.000191939
8 *1198:A *1189:A 3.09494e-05
9 *1198:A *108:19 7.35512e-05
10 *1198:A *112:23 8.23597e-06
11 *1198:A *348:40 8.97084e-05
12 *1198:A *348:44 0.000147583
13 *1198:A *352:16 0.00024604
14 *1198:A *355:8 0.000303368
15 *1195:A *1198:A 0.000395562
16 *1196:A *1198:A 2.11419e-05
17 *1197:A *1198:A 0.000125275
*RES
1 hour[3] *1198:A 47.9443 
*END

*D_NET *12 0.00677683
*CONN
*P hour[4] I
*I *1167:A I *D sky130_fd_sc_hd__clkbuf_2
*CAP
1 hour[4] 0.00101686
2 *1167:A 0.00101686
3 *1167:A led_sec[13] 0.000127309
4 *1167:A *1044:A 0.000134901
5 *1167:A *1137:B 4.11218e-05
6 *1167:A *1168:A 0.00063676
7 *1167:A *1183:A 0.000102575
8 *1167:A *335:28 2.39876e-05
9 *1167:A *338:16 0.00142238
10 *1167:A *338:18 5.28498e-05
11 *1167:A *408:16 0.0020093
12 *1198:A *1167:A 0.000191939
*RES
1 hour[4] *1167:A 23.6044 
*END

*D_NET *13 0.00221651
*CONN
*P led_day[0] O
*I *1212:X O *D sky130_fd_sc_hd__buf_2
*CAP
1 led_day[0] 0.00103768
2 *1212:X 0.00103768
3 led_day[0] led_day[1] 0
4 led_day[0] led_day[2] 0.00010096
5 led_day[0] *1218:A 4.01768e-05
*RES
1 *1212:X led_day[0] 34.1571 
*END

*D_NET *14 0.00168371
*CONN
*P led_day[10] O
*I *1213:X O *D sky130_fd_sc_hd__buf_2
*CAP
1 led_day[10] 0.00045912
2 *1213:X 0.00045912
3 led_day[10] led_day[11] 0.000652959
4 led_day[10] led_day[12] 2.77409e-06
5 led_day[10] led_day[9] 0
6 led_day[10] *1213:A 7.83659e-05
7 led_day[10] *362:6 3.13687e-05
*RES
1 *1213:X led_day[10] 26.6036 
*END

*D_NET *15 0.00197065
*CONN
*P led_day[11] O
*I *1214:X O *D sky130_fd_sc_hd__buf_2
*CAP
1 led_day[11] 0.000283161
2 *1214:X 0.000283161
3 led_day[11] led_day[12] 0.000587383
4 led_day[11] led_day[13] 0
5 led_day[11] *1213:A 7.83587e-05
6 led_day[11] *362:6 5.45307e-05
7 led_day[11] *362:12 3.10925e-05
8 led_day[10] led_day[11] 0.000652959
*RES
1 *1214:X led_day[11] 24.7286 
*END

*D_NET *16 0.00179332
*CONN
*P led_day[12] O
*I *1215:X O *D sky130_fd_sc_hd__buf_2
*CAP
1 led_day[12] 0.000527702
2 *1215:X 0.000527702
3 led_day[12] *972:B 5.65955e-05
4 led_day[12] *361:8 5.38444e-06
5 led_day[12] *361:12 8.5783e-05
6 led_day[10] led_day[12] 2.77409e-06
7 led_day[11] led_day[12] 0.000587383
*RES
1 *1215:X led_day[12] 27.0857 
*END

*D_NET *17 0.00118716
*CONN
*P led_day[13] O
*I *1216:X O *D sky130_fd_sc_hd__buf_2
*CAP
1 led_day[13] 0.000517798
2 *1216:X 0.000517798
3 led_day[13] led_month[0] 0
4 led_day[13] *1002:A1 0.000151559
5 led_day[11] led_day[13] 0
*RES
1 *1216:X led_day[13] 23.6571 
*END

*D_NET *18 0.00200948
*CONN
*P led_day[1] O
*I *1217:X O *D sky130_fd_sc_hd__buf_2
*CAP
1 led_day[1] 0.00100474
2 *1217:X 0.00100474
3 led_day[1] led_day[2] 0
4 led_day[0] led_day[1] 0
*RES
1 *1217:X led_day[1] 32.5857 
*END

*D_NET *19 0.0018038
*CONN
*P led_day[2] O
*I *1218:X O *D sky130_fd_sc_hd__buf_2
*CAP
1 led_day[2] 0.000773537
2 *1218:X 0.000773537
3 led_day[2] led_day[3] 0
4 led_day[2] *961:A 9.77397e-05
5 led_day[2] *962:B 0
6 led_day[2] *173:23 0
7 led_day[2] *318:43 5.80217e-05
8 led_day[0] led_day[2] 0.00010096
9 led_day[1] led_day[2] 0
*RES
1 *1218:X led_day[2] 28.925 
*END

*D_NET *20 0.00139172
*CONN
*P led_day[3] O
*I *1219:X O *D sky130_fd_sc_hd__buf_2
*CAP
1 led_day[3] 0.000552193
2 *1219:X 0.000552193
3 led_day[3] led_day[4] 0
4 led_day[3] *961:A 0.000146474
5 led_day[3] *961:B 0.000121573
6 led_day[3] *1219:A 1.92905e-05
7 led_day[2] led_day[3] 0
*RES
1 *1219:X led_day[3] 24.4786 
*END

*D_NET *21 0.00132719
*CONN
*P led_day[4] O
*I *1220:X O *D sky130_fd_sc_hd__buf_2
*CAP
1 led_day[4] 0.000545925
2 *1220:X 0.000545925
3 led_day[4] led_day[5] 0
4 led_day[4] *961:B 6.8646e-06
5 led_day[4] *962:B 3.17148e-05
6 led_day[4] *1220:A 1.98839e-05
7 led_day[4] *181:19 3.88892e-05
8 led_day[4] *182:6 0.000137983
9 led_day[3] led_day[4] 0
*RES
1 *1220:X led_day[4] 23.9786 
*END

*D_NET *22 0.00143188
*CONN
*P led_day[5] O
*I *1221:X O *D sky130_fd_sc_hd__buf_2
*CAP
1 led_day[5] 0.000546545
2 *1221:X 0.000546545
3 led_day[5] led_day[6] 0
4 led_day[5] *964:A3 6.86693e-05
5 led_day[5] *1220:A 6.8646e-06
6 led_day[5] *1221:A 7.83659e-05
7 led_day[5] *179:20 1.17968e-05
8 led_day[5] *181:19 0.00017309
9 led_day[4] led_day[5] 0
*RES
1 *1221:X led_day[5] 24.4786 
*END

*D_NET *23 0.00139788
*CONN
*P led_day[6] O
*I *1222:X O *D sky130_fd_sc_hd__buf_2
*CAP
1 led_day[6] 0.000532715
2 *1222:X 0.000532715
3 led_day[6] led_day[7] 0
4 led_day[6] *964:A3 2.89016e-05
5 led_day[6] *966:A2 0.000150625
6 led_day[6] *1220:A 0.00012401
7 led_day[6] *178:54 2.89114e-05
8 led_day[5] led_day[6] 0
*RES
1 *1222:X led_day[6] 24.0679 
*END

*D_NET *24 0.00168788
*CONN
*P led_day[7] O
*I *1223:X O *D sky130_fd_sc_hd__buf_2
*CAP
1 led_day[7] 0.000684476
2 *1223:X 0.000684476
3 led_day[7] led_day[8] 0
4 led_day[7] *966:A1 0.000132126
5 led_day[7] *966:A2 1.91894e-05
6 led_day[7] *1222:A 7.83587e-05
7 led_day[7] *1224:A 2.59355e-05
8 led_day[7] *178:45 2.60984e-05
9 led_day[7] *178:54 7.43578e-06
10 led_day[7] *318:31 2.15245e-05
11 led_day[7] *318:33 8.25843e-06
12 led_day[6] led_day[7] 0
*RES
1 *1223:X led_day[7] 26.3714 
*END

*D_NET *25 0.00179672
*CONN
*P led_day[8] O
*I *1163:LO O *D sky130_fd_sc_hd__conb_1
*CAP
1 led_day[8] 0.000557209
2 *1163:LO 0.000557209
3 led_day[8] led_day[9] 0
4 led_day[8] *951:A 5.52238e-05
5 led_day[8] *956:B1 2.14757e-05
6 led_day[8] *966:A1 9.24299e-05
7 led_day[8] *968:A 2.28159e-05
8 led_day[8] *1224:A 9.4736e-05
9 led_day[8] *173:8 9.90367e-05
10 led_day[8] *174:17 2.72545e-05
11 led_day[8] *178:10 1.18064e-05
12 led_day[8] *178:45 0.000170654
13 led_day[8] *318:14 2.94103e-05
14 led_day[8] *318:31 5.74562e-05
15 led_day[7] led_day[8] 0
*RES
1 *1163:LO led_day[8] 27.4071 
*END

*D_NET *26 0.000880891
*CONN
*P led_day[9] O
*I *1224:X O *D sky130_fd_sc_hd__buf_2
*CAP
1 led_day[9] 0.000407373
2 *1224:X 0.000407373
3 led_day[9] *968:A 5.58941e-05
4 led_day[9] *1223:A 1.02504e-05
5 led_day[10] led_day[9] 0
6 led_day[8] led_day[9] 0
*RES
1 *1224:X led_day[9] 21.9071 
*END

*D_NET *27 0.00104288
*CONN
*P led_hour[0] O
*I *1225:X O *D sky130_fd_sc_hd__buf_2
*CAP
1 led_hour[0] 0.000463668