*SPEF "ieee 1481-1999"
*DESIGN "decode_input"
*DATE "19:23:16 Friday January 16, 2026"
*VENDOR "The OpenROAD Project"
*PROGRAM "OpenROAD"
*VERSION "edf00dff99f6c40d67a30c0e22a8191c5d2ed9d6"
*DESIGN_FLOW "NAME_SCOPE LOCAL" "PIN_CAP NONE"
*DIVIDER /
*DELIMITER :
*BUS_DELIMITER []
*T_UNIT 1 NS
*C_UNIT 1 PF
*R_UNIT 1 OHM
*L_UNIT 1 HENRY

*NAME_MAP
*3 button_dec
*4 button_inc
*5 dec[0]
*6 dec[1]
*7 dec[2]
*8 dec[3]
*9 dec[4]
*10 dec[5]
*11 done_dec[0]
*12 done_dec[1]
*13 done_dec[2]
*14 done_dec[3]
*15 done_dec[4]
*16 done_inc[0]
*17 done_inc[1]
*18 done_inc[2]
*19 done_inc[3]
*20 done_inc[4]
*21 en[0]
*22 en[1]
*23 en[2]
*24 en[3]
*25 en[4]
*26 en[5]
*27 inc[0]
*28 inc[1]
*29 inc[2]
*30 inc[3]
*31 inc[4]
*32 inc[5]
*33 mode[0]
*34 mode[1]
*35 select[0]
*36 select[1]
*37 select[2]
*38 select[3]
*39 select[4]
*40 select[5]
*41 _00_
*42 _01_
*43 _02_
*44 _03_
*45 _04_
*46 net1
*47 net10
*48 net11
*49 net12
*50 net13
*51 net14
*52 net15
*53 net16
*54 net17
*55 net18
*56 net19
*57 net2
*58 net20
*59 net21
*60 net22
*61 net23
*62 net24
*63 net25
*64 net26
*65 net27
*66 net28
*67 net29
*68 net3
*69 net30
*70 net31
*71 net32
*72 net33
*73 net34
*74 net35
*75 net36
*76 net37
*77 net38
*78 net39
*79 net4
*80 net40
*81 net5
*82 net6
*83 net7
*84 net8
*85 net9
*86 FILLER_0_11
*87 FILLER_0_17
*88 FILLER_0_21
*89 FILLER_0_27
*90 FILLER_0_32
*91 FILLER_0_41
*92 FILLER_0_47
*93 FILLER_0_51
*94 FILLER_0_55
*95 FILLER_0_57
*96 FILLER_0_6
*97 FILLER_0_61
*98 FILLER_0_67
*99 FILLER_0_71
*100 FILLER_1_15
*101 FILLER_1_27
*102 FILLER_1_3
*103 FILLER_1_39
*104 FILLER_1_51
*105 FILLER_1_55
*106 FILLER_1_57
*107 FILLER_1_69
*108 FILLER_2_15
*109 FILLER_2_27
*110 FILLER_2_29
*111 FILLER_2_3
*112 FILLER_2_41
*113 FILLER_2_53
*114 FILLER_2_65
*115 FILLER_2_77
*116 FILLER_3_15
*117 FILLER_3_27
*118 FILLER_3_3
*119 FILLER_3_39
*120 FILLER_3_51
*121 FILLER_3_55
*122 FILLER_3_57
*123 FILLER_3_69
*124 FILLER_4_15
*125 FILLER_4_27
*126 FILLER_4_29
*127 FILLER_4_3
*128 FILLER_4_41
*129 FILLER_4_53
*130 FILLER_4_65
*131 FILLER_4_77
*132 FILLER_5_15
*133 FILLER_5_27
*134 FILLER_5_3
*135 FILLER_5_39
*136 FILLER_5_51
*137 FILLER_5_55
*138 FILLER_5_57
*139 FILLER_5_63
*140 FILLER_5_69
*141 FILLER_6_15
*142 FILLER_6_27
*143 FILLER_6_29
*144 FILLER_6_3
*145 FILLER_6_42
*146 FILLER_6_48
*147 FILLER_6_56
*148 FILLER_6_80
*149 FILLER_7_18
*150 FILLER_7_33
*151 FILLER_7_42
*152 FILLER_7_48
*153 FILLER_7_55
*154 FILLER_7_57
*155 FILLER_7_6
*156 FILLER_7_73
*157 FILLER_7_78
*158 FILLER_8_3
*159 FILLER_8_35
*160 FILLER_9_3
*161 FILLER_9_41
*162 FILLER_9_80
*163 PHY_EDGE_ROW_0_Left_10
*164 PHY_EDGE_ROW_0_Right_0
*165 PHY_EDGE_ROW_1_Left_11
*166 PHY_EDGE_ROW_1_Right_1
*167 PHY_EDGE_ROW_2_Left_12
*168 PHY_EDGE_ROW_2_Right_2
*169 PHY_EDGE_ROW_3_Left_13
*170 PHY_EDGE_ROW_3_Right_3
*171 PHY_EDGE_ROW_4_Left_14
*172 PHY_EDGE_ROW_4_Right_4
*173 PHY_EDGE_ROW_5_Left_15
*174 PHY_EDGE_ROW_5_Right_5
*175 PHY_EDGE_ROW_6_Left_16
*176 PHY_EDGE_ROW_6_Right_6
*177 PHY_EDGE_ROW_7_Left_17
*178 PHY_EDGE_ROW_7_Right_7
*179 PHY_EDGE_ROW_8_Left_18
*180 PHY_EDGE_ROW_8_Right_8
*181 PHY_EDGE_ROW_9_Left_19
*182 PHY_EDGE_ROW_9_Right_9
*183 TAP_TAPCELL_ROW_0_20
*184 TAP_TAPCELL_ROW_0_21
*185 TAP_TAPCELL_ROW_1_22
*186 TAP_TAPCELL_ROW_2_23
*187 TAP_TAPCELL_ROW_3_24
*188 TAP_TAPCELL_ROW_4_25
*189 TAP_TAPCELL_ROW_5_26
*190 TAP_TAPCELL_ROW_6_27
*191 TAP_TAPCELL_ROW_7_28
*192 TAP_TAPCELL_ROW_8_29
*193 TAP_TAPCELL_ROW_9_30
*194 TAP_TAPCELL_ROW_9_31
*195 _05_
*196 _06_
*197 _07_
*198 _08_
*199 _09_
*200 _10_
*201 _11_
*202 _12_
*203 _13_
*204 _14_
*205 _15_
*206 _16_
*207 _17_
*208 _18_
*209 _19_
*210 _20_
*211 _21_
*212 _22_
*213 _23_
*214 _24_
*215 _25_
*216 _26_
*217 _27_
*218 fanout39
*219 fanout40
*220 input1
*221 input10
*222 input11
*223 input12
*224 input13
*225 input14
*226 input15
*227 input16
*228 input17
*229 input18
*230 input19
*231 input2
*232 input20
*233 input3
*234 input4
*235 input5
*236 input6
*237 input7
*238 input8
*239 input9
*240 output21
*241 output22
*242 output23
*243 output24
*244 output25
*245 output26
*246 output27
*247 output28
*248 output29
*249 output30
*250 output31
*251 output32
*252 output33
*253 output34
*254 output35
*255 output36
*256 output37
*257 output38

*PORTS
button_dec I
button_inc I
dec[0] O
dec[1] O
dec[2] O
dec[3] O
dec[4] O
dec[5] O
done_dec[0] I
done_dec[1] I
done_dec[2] I
done_dec[3] I
done_dec[4] I
done_inc[0] I
done_inc[1] I
done_inc[2] I
done_inc[3] I
done_inc[4] I
en[0] O
en[1] O
en[2] O
en[3] O
en[4] O
en[5] O
inc[0] O
inc[1] O
inc[2] O
inc[3] O
inc[4] O
inc[5] O
mode[0] I
mode[1] I
select[0] I
select[1] I
select[2] I
select[3] I
select[4] I
select[5] I

*D_NET *3 0.00126525
*CONN
*P button_dec I
*I *220:A I *D sky130_fd_sc_hd__buf_1
*CAP
1 button_dec 0.000589867
2 *220:A 0.000589867
3 *220:A *231:A 8.01019e-05
4 *220:A *46:16 5.4155e-06
*RES
1 button_dec *220:A 14.07 
*END

*D_NET *4 0.000934839
*CONN
*P button_inc I
*I *231:A I *D sky130_fd_sc_hd__buf_1
*CAP
1 button_inc 0.000427368
2 *231:A 0.000427368
3 *231:A *232:A 0
4 *220:A *231:A 8.01019e-05
*RES
1 button_inc *231:A 11.25 
*END

*D_NET *5 0.00230969
*CONN
*P dec[0] O
*I *240:X O *D sky130_fd_sc_hd__buf_2
*CAP
1 dec[0] 0.000619536
2 *240:X 0.000619536
3 dec[0] dec[1] 0
4 dec[0] inc[4] 4.17627e-05
5 dec[0] inc[5] 0.00054314
6 dec[0] *204:B 6.70841e-05
7 dec[0] *206:A3 2.71578e-05
8 dec[0] *208:A3 2.37321e-05
9 dec[0] *240:A 0.000187311
10 dec[0] *44:43 5.38986e-05
11 dec[0] *78:31 2.59981e-05
12 dec[0] *78:66 0.000100536
*RES
1 *240:X dec[0] 16.8 
*END

*D_NET *6 0.00235759
*CONN
*P dec[1] O
*I *241:X O *D sky130_fd_sc_hd__buf_2
*CAP
1 dec[1] 0.000709661
2 *241:X 0.000709661
3 dec[1] dec[2] 0.000214766
4 dec[1] *207:A3 0.000220452
5 dec[1] *208:A1 1.91597e-05
6 dec[1] *208:A3 7.21296e-06
7 dec[1] *244:A 0.000416828
8 dec[1] *245:A 8.53113e-06
9 dec[1] *80:53 2.34423e-05
10 dec[1] *80:66 2.78732e-05
11 dec[0] dec[1] 0
*RES
1 *241:X dec[1] 16.725 
*END

*D_NET *7 0.00212805
*CONN
*P dec[2] O
*I *242:X O *D sky130_fd_sc_hd__buf_2
*CAP
1 dec[2] 0.000445177
2 *242:X 0.000445177
3 dec[2] dec[3] 0.000217736
4 dec[2] en[0] 0.000106777
5 dec[2] en[1] 0.000108652
6 dec[2] *207:A3 4.43871e-06
7 dec[2] *209:A3 9.02174e-05
8 dec[2] *257:A 0.000495107
9 dec[1] dec[2] 0.000214766
*RES
1 *242:X dec[2] 20.92 
*END

*D_NET *8 0.00228782
*CONN
*P dec[3] O
*I *243:X O *D sky130_fd_sc_hd__buf_2
*CAP
1 dec[3] 0.000567521
2 *243:X 0.000567521
3 dec[3] dec[4] 0.00026123
4 dec[3] dec[5] 4.99619e-05
5 dec[3] *207:A3 0
6 dec[3] *208:A2 0.000261889
7 dec[3] *209:A3 0.000299212
8 dec[3] *243:A 5.34747e-05
9 dec[3] *245:A 9.27255e-06
10 dec[2] dec[3] 0.000217736
*RES
1 *243:X dec[3] 17.145 
*END

*D_NET *9 0.00189011
*CONN
*P dec[4] O
*I *244:X O *D sky130_fd_sc_hd__buf_2
*CAP
1 dec[4] 0.000652317
2 *244:X 0.000652317
3 dec[4] dec[5] 0
4 dec[4] *209:A3 0.000155928
5 dec[4] *242:A 7.47457e-05
6 dec[4] *244:A 8.77382e-05
7 dec[4] *257:A 5.83121e-06
8 dec[3] dec[4] 0.00026123
*RES
1 *244:X dec[4] 15.105 
*END

*D_NET *10 0.00190461
*CONN
*P dec[5] O
*I *245:X O *D sky130_fd_sc_hd__buf_2
*CAP
1 dec[5] 0.00057336
2 *245:X 0.00057336
3 dec[5] en[0] 0.000510154
4 dec[5] en[1] 0
5 dec[5] *209:A3 0
6 dec[5] *241:A 7.28749e-05
7 dec[5] *245:A 0.0001249
8 dec[3] dec[5] 4.99619e-05
9 dec[4] dec[5] 0
*RES
1 *245:X dec[5] 16.455 
*END

*D_NET *11 0.00167624
*CONN
*P done_dec[0] I
*I *233:A I *D sky130_fd_sc_hd__clkbuf_1
*CAP
1 done_dec[0] 0.000427262
2 *233:A 0.000427262
3 *233:A *207:A3 0.000119798
4 *233:A *212:A1 0.000262696
5 *233:A *223:A 0.000411699
6 *233:A *234:A 0
7 *233:A *237:A 2.75229e-05
*RES
1 done_dec[0] *233:A 14.34 
*END

*D_NET *12 0.0016597
*CONN
*P done_dec[1] I
*I *234:A I *D sky130_fd_sc_hd__clkbuf_1
*CAP
1 done_dec[1] 0.000478348
2 *234:A 0.000478348
3 *234:A *207:A3 0
4 *234:A *212:B1 5.33085e-05
5 *234:A *213:A1 6.90876e-05
6 *234:A *214:A1 9.66021e-05
7 *234:A *216:A1 0.000122589
8 *234:A *222:A 0
9 *234:A *235:A 0.000311451
10 *234:A *236:A 4.99619e-05
11 *233:A *234:A 0
*RES
1 done_dec[1] *234:A 15.255 
*END

*D_NET *13 0.00203221
*CONN
*P done_dec[2] I
*I *235:A I *D sky130_fd_sc_hd__clkbuf_1
*CAP
1 done_dec[2] 0.000601606
2 *235:A 0.000601606
3 *235:A *207:A3 0.000231173
4 *235:A *209:A3 0.000141666
5 *235:A *216:A1 3.09233e-05
6 *235:A *222:A 0.00011379
7 *235:A *236:A 0
8 *234:A *235:A 0.000311451
*RES
1 done_dec[2] *235:A 19.375 
*END

*D_NET *14 0.00210382
*CONN
*P done_dec[3] I
*I *236:A I *D sky130_fd_sc_hd__clkbuf_1
*CAP
1 done_dec[3] 0.000535526
2 *236:A 0.000535526
3 *236:A *206:A3 0.000158965
4 *236:A *213:A1 0.000138238
5 *236:A *214:A1 0.000144316
6 *236:A *214:B1 5.16348e-05
7 *236:A *215:A1 1.7678e-05
8 *236:A *216:A1 8.08153e-06
9 *236:A *237:A 0.0003617
10 *236:A *252:A 4.82919e-05
11 *236:A *42:21 0
12 *236:A *42:42 5.38986e-05
13 *234:A *236:A 4.99619e-05
14 *235:A *236:A 0
*RES
1 done_dec[3] *236:A 16.605 
*END

*D_NET *15 0.00242356
*CONN
*P done_dec[4] I
*I *237:A I *D sky130_fd_sc_hd__clkbuf_1
*CAP
1 done_dec[4] 0.000507883
2 *237:A 0.000507883
3 *237:A inc[0] 0.000229192
4 *237:A *205:A3 0.000445447
5 *237:A *207:A3 5.83121e-06
6 *237:A *212:A1 3.52139e-06
7 *237:A *212:A2 4.00541e-06
8 *237:A *214:B1 5.16348e-05
9 *237:A *257:A 0.000196376
10 *237:A *42:21 2.7881e-05
11 *237:A *42:34 5.46798e-05
12 *233:A *237:A 2.75229e-05
13 *236:A *237:A 0.0003617
*RES
1 done_dec[4] *237:A 18.36 
*END

*D_NET *16 0.00148463
*CONN
*P done_inc[0] I
*I *238:A I *D sky130_fd_sc_hd__clkbuf_1
*CAP
1 done_inc[0] 0.000555505
2 *238:A 0.000555505
3 *238:A *215:A1 0
4 *238:A *239:A 0.000373619
*RES
1 done_inc[0] *238:A 15.9 
*END

*D_NET *17 0.00128361
*CONN
*P done_inc[1] I
*I *239:A I *D sky130_fd_sc_hd__clkbuf_1
*CAP
1 done_inc[1] 0.000269658
2 *239:A 0.000269658
3 *239:A *221:A 0.000370674
4 *238:A *239:A 0.000373619
*RES
1 done_inc[1] *239:A 13.665 
*END

*D_NET *18 0.00139443
*CONN
*P done_inc[2] I
*I *221:A I *D sky130_fd_sc_hd__clkbuf_1
*CAP
1 done_inc[2] 0.000254333
2 *221:A 0.000254333
3 *221:A *209:A3 0.000251588
4 *221:A *222:A 0.000263503
5 *239:A *221:A 0.000370674
*RES
1 done_inc[2] *221:A 13.665 
*END

*D_NET *19 0.00167135
*CONN
*P done_inc[3] I
*I *222:A I *D sky130_fd_sc_hd__clkbuf_1
*CAP
1 done_inc[3] 0.000258667
2 *222:A 0.000258667
3 *222:A *207:A3 2.60908e-05
4 *222:A *209:A3 7.60927e-05
5 *222:A *216:A1 0
6 *222:A *223:A 0.000674542
7 *221:A *222:A 0.000263503
8 *234:A *222:A 0
9 *235:A *222:A 0.00011379
*RES
1 done_inc[3] *222:A 13.665 
*END

*D_NET *20 0.00197152
*CONN
*P done_inc[4] I
*I *223:A I *D sky130_fd_sc_hd__clkbuf_1
*CAP
1 done_inc[4] 0.000352241
2 *223:A 0.000352241
3 *223:A *207:A3 0.000164611
4 *223:A *212:A1 1.61831e-05
5 *222:A *223:A 0.000674542
6 *233:A *223:A 0.000411699
*RES
1 done_inc[4] *223:A 14.85 
*END

*D_NET *21 0.00182093
*CONN
*P en[0] O
*I *246:X O *D sky130_fd_sc_hd__buf_2
*CAP
1 en[0] 0.000555103
2 *246:X 0.000555103
3 en[0] en[1] 4.38278e-05
4 en[0] *245:A 4.99619e-05
5 dec[2] en[0] 0.000106777
6 dec[5] en[0] 0.000510154
*RES
1 *246:X en[0] 16.29 
*END

*D_NET *22 0.00198447
*CONN
*P en[1] O
*I *247:X O *D sky130_fd_sc_hd__buf_2
*CAP
1 en[1] 0.000687869
2 *247:X 0.000687869
3 en[1] en[2] 0.000305475
4 en[1] *246:A 5.4003e-05
5 en[1] *247:A 2.49909e-05
6 en[1] *257:A 7.17811e-05
7 dec[2] en[1] 0.000108652
8 dec[5] en[1] 0
9 en[0] en[1] 4.38278e-05
*RES
1 *247:X en[1] 17.04 
*END

*D_NET *23 0.00189153
*CONN
*P en[2] O
*I *248:X O *D sky130_fd_sc_hd__buf_2
*CAP
1 en[2] 0.00035133
2 *248:X 0.00035133
3 en[2] en[3] 0.000446636
4 en[2] en[4] 4.82863e-05
5 en[2] inc[5] 7.23533e-05
6 en[2] *246:A 6.47516e-05
7 en[2] *247:A 0.000116158
8 en[2] *257:A 0.00013521
9 en[1] en[2] 0.000305475
*RES
1 *248:X en[2] 15.735 
*END

*D_NET *24 0.00282105
*CONN
*P en[3] O
*I *249:X O *D sky130_fd_sc_hd__buf_2
*CAP
1 en[3] 0.000442424
2 *249:X 0.000442424
3 en[3] en[4] 0.000990588
4 en[3] en[5] 3.77199e-05
5 en[3] inc[5] 7.06865e-05
6 en[3] *247:A 0.000310417
7 en[3] *248:A 5.34525e-05
8 en[3] *249:A 2.67022e-05
9 en[2] en[3] 0.000446636
*RES
1 *249:X en[3] 19.47 
*END

*D_NET *25 0.0030113
*CONN
*P en[4] O
*I *250:X O *D sky130_fd_sc_hd__buf_2
*CAP
1 en[4] 0.00057499
2 *250:X 0.00057499
3 en[4] en[5] 0.000619786
4 en[4] *203:B 6.26349e-05
5 en[4] *246:A 1.34503e-05
6 en[4] *251:A 0.00012657
7 en[2] en[4] 4.82863e-05
8 en[3] en[4] 0.000990588
*RES
1 *250:X en[4] 20.25 
*END

*D_NET *26 0.00320624
*CONN
*P en[5] O
*I *251:X O *D sky130_fd_sc_hd__buf_2
*CAP
1 en[5] 0.00107084
2 *251:X 0.00107084
3 en[5] *246:A 0.000347029
4 en[5] *251:A 1.17309e-05
5 en[5] *46:16 4.82863e-05
6 en[3] en[5] 3.77199e-05
7 en[4] en[5] 0.000619786
*RES
1 *251:X en[5] 23.22 
*END

*D_NET *27 0.00191924
*CONN
*P inc[0] O
*I *252:X O *D sky130_fd_sc_hd__buf_2
*CAP
1 inc[0] 0.000522875
2 *252:X 0.000522875
3 inc[0] inc[1] 0
4 inc[0] *213:A1 0.000122325
5 inc[0] *216:A1 3.18219e-05
6 inc[0] *42:10 4.9968e-05
7 inc[0] *42:21 0.000199727
8 inc[0] *42:34 0.000112123
9 inc[0] *45:10 2.59981e-05
10 inc[0] *45:23 0.000102338
11 *237:A inc[0] 0.000229192
*RES
1 *252:X inc[0] 15.66 
*END

*D_NET *28 0.00198886
*CONN
*P inc[1] O
*I *253:X O *D sky130_fd_sc_hd__buf_2
*CAP
1 inc[1] 0.000656599
2 *253:X 0.000656599
3 inc[1] inc[2] 2.805e-05
4 inc[1] *208:A3 2.67222e-05
5 inc[1] *216:A1 8.99825e-05
6 inc[1] *256:A 0.000117912
7 inc[1] *257:A 0.000194338
8 inc[1] *45:10 6.36578e-05
9 inc[1] *45:23 0.000155002
10 inc[0] inc[1] 0
*RES
1 *253:X inc[1] 16.845 
*END

*D_NET *29 0.00275793
*CONN
*P inc[2] O
*I *254:X O *D sky130_fd_sc_hd__buf_2
*CAP
1 inc[2] 0.000859354
2 *254:X 0.000859354
3 inc[2] inc[3] 0.000678522
4 inc[2] *210:B1 2.88069e-05
5 inc[2] *253:A 0.000107499
6 inc[2] *256:A 0.000196348
7 inc[2] *257:A 0
8 inc[1] inc[2] 2.805e-05
*RES
1 *254:X inc[2] 16.5472 
*END

*D_NET *30 0.00201424
*CONN
*P inc[3] O
*I *255:X O *D sky130_fd_sc_hd__buf_2
*CAP
1 inc[3] 0.000409491
2 *255:X 0.000409491
3 inc[3] inc[4] 0
4 inc[3] *216:A2 0.00011379
5 inc[3] *253:A 0.000178034
6 inc[3] *254:A 4.35812e-05
7 inc[3] *255:A 0.000181335
8 inc[3] *257:A 0
9 inc[2] inc[3] 0.000678522
*RES
1 *255:X inc[3] 14.625 
*END

*D_NET *31 0.00196049
*CONN
*P inc[4] O
*I *256:X O *D sky130_fd_sc_hd__buf_2
*CAP
1 inc[4] 0.000551722
2 *256:X 0.000551722
3 inc[4] inc[5] 0.000313326
4 inc[4] *204:A_N 0.000174729
5 inc[4] *210:A1 4.77719e-05
6 inc[4] *216:A2 0
7 inc[4] *254:A 0
8 inc[4] *78:31 0.000110492
9 inc[4] *78:66 0.000168966
10 dec[0] inc[4] 4.17627e-05
11 inc[3] inc[4] 0
*RES
1 *256:X inc[4] 15.735 
*END

*D_NET *32 0.00404271
*CONN
*P inc[5] O
*I *257:X O *D sky130_fd_sc_hd__buf_2
*CAP
1 inc[5] 0.00100967
2 *257:X 0.00100967
3 inc[5] *257:A 0.00102387
4 dec[0] inc[5] 0.00054314
5 en[2] inc[5] 7.23533e-05
6 en[3] inc[5] 7.06865e-05
7 inc[4] inc[5] 0.000313326
*RES
1 *257:X inc[5] 25.87 
*END

*D_NET *33 0.000982746
*CONN
*P mode[0] I
*I *224:A I *D sky130_fd_sc_hd__buf_1
*CAP
1 mode[0] 0.000491373
2 *224:A 0.000491373
3 *224:A *225:A 0
*RES
1 mode[0] *224:A 12.075 
*END

*D_NET *34 0.000779238
*CONN
*P mode[1] I
*I *225:A I *D sky130_fd_sc_hd__buf_1
*CAP
1 mode[1] 0.000380427
2 *225:A 0.000380427
3 *225:A *226:A 0
4 *225:A *50:14 1.83847e-05
5 *224:A *225:A 0
*RES
1 mode[1] *225:A 10.35 
*END

*D_NET *35 0.000802136
*CONN
*P select[0] I
*I *226:A I *D sky130_fd_sc_hd__clkbuf_1
*CAP
1 select[0] 0.000367935
2 *226:A 0.000367935
3 *226:A *227:A 0
4 *226:A *50:14 1.83847e-05
5 *226:A *51:10 4.78807e-05
6 *225:A *226:A 0
*RES
1 select[0] *226:A 10.35 
*END

*D_NET *36 0.000837335
*CONN
*P select[1] I
*I *227:A I *D sky130_fd_sc_hd__clkbuf_1
*CAP
1 select[1] 0.000401384
2 *227:A 0.000401384
3 *227:A *198:A 3.45679e-05
4 *227:A *228:A 0
5 *227:A *51:10 0
6 *226:A *227:A 0
*RES
1 select[1] *227:A 10.695 
*END

*D_NET *37 0.000814068
*CONN
*P select[2] I
*I *228:A I *D sky130_fd_sc_hd__clkbuf_1
*CAP
1 select[2] 0.000382888
2 *228:A 0.000382888
3 *228:A *199:A 4.82919e-05
4 *228:A *229:A 0
5 *227:A *228:A 0
*RES
1 select[2] *228:A 10.35 
*END

*D_NET *38 0.000828596
*CONN
*P select[3] I
*I *229:A I *D sky130_fd_sc_hd__clkbuf_1
*CAP
1 select[3] 0.000390152
2 *229:A 0.000390152
3 *229:A *199:A 4.82919e-05
4 *229:A *230:A 0
5 *228:A *229:A 0
*RES
1 select[3] *229:A 10.35 
*END

*D_NET *39 0.000845356
*CONN
*P select[4] I
*I *230:A I *D sky130_fd_sc_hd__clkbuf_1
*CAP
1 select[4] 0.000374386
2 *230:A 0.000374386
3 *230:A *199:A 4.82919e-05
4 *230:A *201:A 4.82919e-05
5 *230:A *232:A 0
6 *229:A *230:A 0
*RES
1 select[4] *230:A 10.35 
*END

*D_NET *40 0.000827536
*CONN
*P select[5] I
*I *232:A I *D sky130_fd_sc_hd__clkbuf_1
*CAP
1 select[5] 0.000374375
2 *232:A 0.000374375
3 *232:A *199:A 2.97004e-06
4 *232:A *201:A 2.75229e-05
5 *232:A *46:16 4.82919e-05
6 *230:A *232:A 0
7 *231:A *232:A 0
*RES
1 select[5] *232:A 10.35 
*END

*D_NET *41 0.00142504
*CONN
*I *217:A2 I *D sky130_fd_sc_hd__a21oi_1
*I *195:Y O *D sky130_fd_sc_hd__inv_2
*CAP
1 *217:A2 0.00044839
2 *195:Y 0.00044839
3 *217:A2 *208:A3 5.60097e-05
4 *217:A2 *211:A_N 3.4287e-05
5 *217:A2 *211:C 0
6 *217:A2 *217:A1 4.61744e-05
7 *217:A2 *42:10 0.000316106
8 *217:A2 *50:14 1.61831e-05
9 *217:A2 *78:27 7.10593e-06
10 *217:A2 *80:47 5.2397e-05
*RES
1 *195:Y *217:A2 14.565 
*END

*D_NET *42 0.00493226
*CONN
*I *216:A2 I *D sky130_fd_sc_hd__a21o_1
*I *214:A2 I *D sky130_fd_sc_hd__a21o_1
*I *212:A2 I *D sky130_fd_sc_hd__a21o_1
*I *215:A2 I *D sky130_fd_sc_hd__a21o_1
*I *213:A2 I *D sky130_fd_sc_hd__a21o_1
*I *196:Y O *D sky130_fd_sc_hd__nor2_1
*CAP
1 *216:A2 0.000381774
2 *214:A2 0
3 *212:A2 0.000109241
4 *215:A2 1.36534e-05
5 *213:A2 1.36534e-05
6 *196:Y 0.000264137
7 *42:42 0.000322935
8 *42:34 0.000642317
9 *42:21 0.000161966
10 *42:10 0.000379254
11 *212:A2 *205:A3 0.000170937
12 *212:A2 *212:A1 4.99619e-05
13 *212:A2 *212:B1 5.99393e-05
14 *212:A2 *215:A1 4.66108e-05
15 *213:A2 *206:A3 4.66108e-05
16 *213:A2 *213:A1 4.66108e-05
17 *215:A2 *205:A3 4.66108e-05
18 *215:A2 *215:A1 4.66108e-05
19 *216:A2 *207:A3 3.24882e-05
20 *216:A2 *216:A1 0.00015896
21 *216:A2 *254:A 2.97746e-05
22 *216:A2 *257:A 0.000232999
23 *42:10 *210:A1 0
24 *42:10 *211:B 6.28843e-05
25 *42:10 *211:C 3.87523e-05
26 *42:10 *217:A1 0
27 *42:10 *45:10 1.95374e-05
28 *42:10 *50:14 0.000160635
29 *42:10 *78:10 0
30 *42:10 *78:18 8.80056e-05
31 *42:10 *78:27 2.86975e-05
32 *42:21 *215:A1 0
33 *42:42 *214:A1 8.53113e-06
34 *42:42 *215:A1 2.92496e-05
35 *42:42 *216:A1 0.000306742
36 inc[0] *42:10 4.9968e-05
37 inc[0] *42:21 0.000199727
38 inc[0] *42:34 0.000112123
39 inc[3] *216:A2 0.00011379
40 inc[4] *216:A2 0
41 *217:A2 *42:10 0.000316106
42 *236:A *42:21 0
43 *236:A *42:42 5.38986e-05
44 *237:A *212:A2 4.00541e-06
45 *237:A *42:21 2.7881e-05
46 *237:A *42:34 5.46798e-05
*RES
1 *196:Y *42:10 10.74 
2 *42:10 *213:A2 4.05 
3 *42:10 *42:21 2.4 
4 *42:21 *215:A2 4.05 
5 *42:21 *42:34 3.38 
6 *42:34 *42:42 7.555 
7 *42:42 *212:A2 4.6 
8 *42:42 *214:A2 1.6 
9 *42:34 *216:A2 11.225 
*END

*D_NET *43 0.00287571
*CONN
*I *199:B I *D sky130_fd_sc_hd__or2_1
*I *201:B I *D sky130_fd_sc_hd__or2_1
*I *202:B I *D sky130_fd_sc_hd__or2_1
*I *203:B I *D sky130_fd_sc_hd__or2_1
*I *200:B I *D sky130_fd_sc_hd__or2_1
*I *198:B I *D sky130_fd_sc_hd__or2_1
*I *197:Y O *D sky130_fd_sc_hd__xnor2_1
*CAP
1 *199:B 0
2 *201:B 2.11219e-05
3 *202:B 0
4 *203:B 0.000176971
5 *200:B 0.000110099
6 *198:B 0
7 *197:Y 0.000150601
8 *43:47 0.000318358
9 *43:17 0.00028707
10 *43:15 0.000405953
11 *43:8 0.000259318
12 *200:B *199:A 0.00011686
13 *200:B *203:A 0
14 *201:B *201:A 4.82919e-05
15 *203:B *199:A 2.07184e-05
16 *203:B *203:A 0
17 *203:B *246:A 0.000389141
18 *203:B *250:A 6.02123e-05
19 *203:B *251:A 6.97202e-05
20 *203:B *46:16 1.52862e-05
21 *43:8 *198:A 0.000115146
22 *43:15 *198:A 8.65905e-05
23 *43:15 *199:A 4.66108e-05
24 *43:47 *199:A 4.47209e-05
25 *43:47 *201:A 1.91597e-05
26 *43:47 *247:A 4.25379e-05
27 *43:47 *250:A 8.58339e-06
28 en[4] *203:B 6.26349e-05
*RES
1 *197:Y *43:8 3.79 
2 *43:8 *198:B 1.6 
3 *43:8 *43:15 1.83 
4 *43:15 *43:17 2 
5 *43:17 *200:B 5.43 
6 *43:17 *203:B 8.88 
7 *43:15 *43:47 3.93 
8 *43:47 *202:B 1.6 
9 *43:47 *201:B 2.05 
10 *43:15 *199:B 1.6 
*END

*D_NET *44 0.00189946
*CONN
*I *206:B1 I *D sky130_fd_sc_hd__a31o_1
*I *205:B1 I *D sky130_fd_sc_hd__a31o_1
*I *209:B1 I *D sky130_fd_sc_hd__a31o_1
*I *208:B1 I *D sky130_fd_sc_hd__a31o_1
*I *207:B1 I *D sky130_fd_sc_hd__a31o_1
*I *204:X O *D sky130_fd_sc_hd__and3b_1
*CAP
1 *206:B1 0
2 *205:B1 2.46411e-05
3 *209:B1 1.10148e-05
4 *208:B1 8.25111e-05
5 *207:B1 0
6 *204:X 0
7 *44:43 7.6818e-05
8 *44:19 0.000165423
9 *44:8 0.000156271
10 *44:4 0.000136551
11 *205:B1 *206:A3 0.000122331
12 *205:B1 *78:75 0.000122331
13 *208:B1 *207:A3 7.50263e-05
14 *208:B1 *208:A2 0.000199039
15 *209:B1 *209:A1 3.66286e-05
16 *209:B1 *243:A 4.66108e-05
17 *44:8 *78:35 1.08758e-05
18 *44:8 *78:46 8.23457e-05
19 *44:19 *209:A1 0.000149096
20 *44:19 *243:A 4.82863e-05
21 *44:19 *245:A 0.000140027
22 *44:19 *78:46 3.74161e-05
23 *44:43 *204:B 8.53113e-06
24 *44:43 *208:A3 0.00011379
25 dec[0] *44:43 5.38986e-05
*RES
1 *204:X *44:4 1.6 
2 *44:4 *44:8 1.41 
3 *44:8 *207:B1 1.6 
4 *44:8 *44:19 2.64 
5 *44:19 *208:B1 8 
6 *44:19 *209:B1 2.05 
7 *44:4 *44:43 5.38 
8 *44:43 *205:B1 2.74 
9 *44:43 *206:B1 1.6 
*END

*D_NET *45 0.00280341
*CONN
*I *216:B1 I *D sky130_fd_sc_hd__a21o_1
*I *215:B1 I *D sky130_fd_sc_hd__a21o_1
*I *214:B1 I *D sky130_fd_sc_hd__a21o_1
*I *212:B1 I *D sky130_fd_sc_hd__a21o_1
*I *213:B1 I *D sky130_fd_sc_hd__a21o_1
*I *211:X O *D sky130_fd_sc_hd__and3b_1
*CAP
1 *216:B1 4.13107e-05
2 *215:B1 0
3 *214:B1 1.57715e-05
4 *212:B1 0.000187883
5 *213:B1 2.27018e-05
6 *211:X 8.32192e-05
7 *45:53 5.80712e-05
8 *45:27 0.000406974
9 *45:23 0.000304821
10 *45:10 0.000190662
11 *212:B1 *215:A1 0.00015639
12 *212:B1 *216:A1 5.16348e-05
13 *213:B1 *206:A3 4.77757e-05
14 *216:B1 *205:A3 0.000184015
15 *216:B1 *216:A1 4.01749e-05
16 *216:B1 *254:A 0.000122801
17 *45:10 *208:A3 4.94457e-05
18 *45:10 *211:C 9.50342e-06
19 *45:27 *205:A3 9.80032e-06
20 *45:27 *215:A1 0.000182931
21 *45:53 *205:A3 4.77757e-05
22 *45:53 *216:A1 6.69608e-06
23 inc[0] *45:10 2.59981e-05
24 inc[0] *45:23 0.000102338
25 inc[1] *45:10 6.36578e-05
26 inc[1] *45:23 0.000155002
27 *212:A2 *212:B1 5.99393e-05
28 *234:A *212:B1 5.33085e-05
29 *236:A *214:B1 5.16348e-05
30 *237:A *214:B1 5.16348e-05
31 *42:10 *45:10 1.95374e-05
*RES
1 *211:X *45:10 5.43 
2 *45:10 *213:B1 4.05 
3 *45:10 *45:23 4.4 
4 *45:23 *45:27 2.79 
5 *45:27 *212:B1 8.39 
6 *45:27 *214:B1 6.215 
7 *45:23 *45:53 0.45 
8 *45:53 *215:B1 1.6 
9 *45:53 *216:B1 3.43 
*END

*D_NET *46 0.00444135
*CONN
*I *210:A2 I *D sky130_fd_sc_hd__o21a_1
*I *204:B I *D sky130_fd_sc_hd__and3b_1
*I *220:X O *D sky130_fd_sc_hd__buf_1
*CAP
1 *210:A2 0
2 *204:B 0.000256581
3 *220:X 0.000993242
4 *46:16 0.00124982
5 *204:B *208:A3 0.000295799
6 *204:B *210:A1 2.67275e-05
7 *204:B *210:B1 4.26259e-05
8 *204:B *240:A 9.30717e-05
9 *204:B *78:31 0
10 *204:B *78:35 1.83847e-05
11 *46:16 *199:A 0.000677413
12 *46:16 *201:A 0.000120349
13 *46:16 *202:A 0.000390466
14 *46:16 *210:A1 2.11084e-05
15 *46:16 *246:A 6.28687e-05
16 *46:16 *80:51 0
17 dec[0] *204:B 6.70841e-05
18 en[5] *46:16 4.82863e-05
19 *203:B *46:16 1.52862e-05
20 *220:A *46:16 5.4155e-06
21 *232:A *46:16 4.82919e-05
22 *44:43 *204:B 8.53113e-06
*RES
1 *220:X *46:16 27.635 
2 *46:16 *204:B 10.91 
3 *46:16 *210:A2 1.6 
*END

*D_NET *47 0.00132712
*CONN
*I *214:A1 I *D sky130_fd_sc_hd__a21o_1
*I *221:X O *D sky130_fd_sc_hd__clkbuf_1
*CAP
1 *214:A1 0.000419961
2 *221:X 0.000419961
3 *214:A1 *206:A3 0.000159741
4 *214:A1 *213:A1 1.33293e-05
5 *214:A1 *215:A1 6.46783e-05
6 *234:A *214:A1 9.66021e-05
7 *236:A *214:A1 0.000144316
8 *42:42 *214:A1 8.53113e-06
*RES
1 *221:X *214:A1 13.425 
*END

*D_NET *48 0.00124724
*CONN
*I *213:A1 I *D sky130_fd_sc_hd__a21o_1
*I *222:X O *D sky130_fd_sc_hd__clkbuf_1
*CAP
1 *213:A1 0.000309492
2 *222:X 0.000309492
3 *213:A1 *206:A3 0.000105454
4 *213:A1 *252:A 8.65961e-05
5 *213:A1 *78:10 4.66108e-05
6 inc[0] *213:A1 0.000122325
7 *213:A2 *213:A1 4.66108e-05
8 *214:A1 *213:A1 1.33293e-05
9 *234:A *213:A1 6.90876e-05
10 *236:A *213:A1 0.000138238
*RES
1 *222:X *213:A1 9.53 
*END

*D_NET *49 0.000960267
*CONN
*I *212:A1 I *D sky130_fd_sc_hd__a21o_1
*I *223:X O *D sky130_fd_sc_hd__clkbuf_1
*CAP
1 *212:A1 0.000305861
2 *223:X 0.000305861
3 *212:A1 *205:A3 1.61831e-05
4 *212:A2 *212:A1 4.99619e-05
5 *223:A *212:A1 1.61831e-05
6 *233:A *212:A1 0.000262696
7 *237:A *212:A1 3.52139e-06
*RES
1 *223:X *212:A1 7.1 
*END

*D_NET *50 0.00588038
*CONN
*I *219:A I *D sky130_fd_sc_hd__buf_2
*I *210:A1 I *D sky130_fd_sc_hd__o21a_1
*I *224:X O *D sky130_fd_sc_hd__buf_1
*CAP
1 *219:A 0
2 *210:A1 0.000460159
3 *224:X 0.00107951
4 *50:14 0.00153967
5 *210:A1 *208:A3 0.00018603
6 *210:A1 *210:B1 8.23457e-05
7 *210:A1 *211:B 7.3664e-05
8 *210:A1 *211:C 0.000501023
9 *210:A1 *254:A 8.77498e-05
10 *210:A1 *256:A 0.00015567
11 *50:14 *51:10 0.0010563
12 *50:14 *78:18 0.000349076
13 inc[4] *210:A1 4.77719e-05
14 *204:B *210:A1 2.67275e-05
15 *217:A2 *50:14 1.61831e-05
16 *225:A *50:14 1.83847e-05
17 *226:A *50:14 1.83847e-05
18 *42:10 *210:A1 0
19 *42:10 *50:14 0.000160635
20 *46:16 *210:A1 2.11084e-05
*RES
1 *224:X *50:14 26.705 
2 *50:14 *210:A1 16.52 
3 *50:14 *219:A 1.6 
*END

*D_NET *51 0.00608141
*CONN
*I *218:A I *D sky130_fd_sc_hd__buf_2
*I *210:B1 I *D sky130_fd_sc_hd__o21a_1
*I *225:X O *D sky130_fd_sc_hd__buf_1
*CAP
1 *218:A 5.05971e-05
2 *210:B1 0.00121281
3 *225:X 0.000916334
4 *51:10 0.00217974
5 *210:B1 *208:A3 1.61831e-05
6 *210:B1 *78:31 6.15576e-06
7 *218:A *215:A1 0.000116165
8 *218:A *216:A1 0.000137038
9 *218:A *252:A 1.41626e-05
10 *51:10 *198:A 9.60582e-07
11 *51:10 *216:A1 6.50568e-05
12 *51:10 *217:A1 0
13 *51:10 *252:A 3.57564e-05
14 *51:10 *78:18 7.24866e-05
15 inc[2] *210:B1 2.88069e-05
16 *204:B *210:B1 4.26259e-05
17 *210:A1 *210:B1 8.23457e-05
18 *226:A *51:10 4.78807e-05
19 *227:A *51:10 0
20 *50:14 *51:10 0.0010563
*RES
1 *225:X *51:10 22.4325 
2 *51:10 *210:B1 7.35523 
3 *51:10 *218:A 5.3625 
*END

*D_NET *52 0.00445009
*CONN
*I *198:A I *D sky130_fd_sc_hd__or2_1
*I *226:X O *D sky130_fd_sc_hd__clkbuf_1
*CAP
1 *198:A 0.00156093
2 *226:X 0.00156093
3 *198:A *197:A 0.0001249
4 *198:A *199:A 0.000529717
5 *198:A *200:A 0.000311943
6 *198:A *57:16 9.22931e-05
7 *198:A *78:31 4.43871e-06
8 *198:A *80:47 2.76781e-05
9 *227:A *198:A 3.45679e-05
10 *43:8 *198:A 0.000115146
11 *43:15 *198:A 8.65905e-05
12 *51:10 *198:A 9.60582e-07
*RES
1 *226:X *198:A 34.41 
*END

*D_NET *53 0.00431028
*CONN
*I *199:A I *D sky130_fd_sc_hd__or2_1
*I *227:X O *D sky130_fd_sc_hd__clkbuf_1
*CAP
1 *199:A 0.000799209
2 *227:X 0.000799209
3 *199:A *200:A 0.000754388
4 *199:A *201:A 0.000302683
5 *199:A *202:A 6.59822e-05
6 *199:A *203:A 0
7 *199:A *250:A 4.9253e-06
8 *198:A *199:A 0.000529717
9 *200:B *199:A 0.00011686
10 *203:B *199:A 2.07184e-05
11 *228:A *199:A 4.82919e-05
12 *229:A *199:A 4.82919e-05
13 *230:A *199:A 4.82919e-05
14 *232:A *199:A 2.97004e-06
15 *43:15 *199:A 4.66108e-05
16 *43:47 *199:A 4.47209e-05
17 *46:16 *199:A 0.000677413
*RES
1 *227:X *199:A 33 
*END

*D_NET *54 0.0034388
*CONN
*I *200:A I *D sky130_fd_sc_hd__or2_1
*I *228:X O *D sky130_fd_sc_hd__clkbuf_1
*CAP
1 *200:A 0.00106805
2 *228:X 0.00106805
3 *200:A *202:A 0.000236355
4 *200:A *203:A 0
5 *198:A *200:A 0.000311943
6 *199:A *200:A 0.000754388
*RES
1 *228:X *200:A 26.07 
*END

*D_NET *55 0.00407349
*CONN
*I *201:A I *D sky130_fd_sc_hd__or2_1
*I *229:X O *D sky130_fd_sc_hd__clkbuf_1
*CAP
1 *201:A 0.00115088
2 *229:X 0.00115088
3 *201:A *202:A 0.00101105
4 *201:A *203:A 1.01661e-05
5 *201:A *247:A 6.97118e-05
6 *201:A *248:A 0.000114492
7 *201:A *249:A 0
8 *201:A *57:16 0
9 *199:A *201:A 0.000302683
10 *201:B *201:A 4.82919e-05
11 *230:A *201:A 4.82919e-05
12 *232:A *201:A 2.75229e-05
13 *43:47 *201:A 1.91597e-05
14 *46:16 *201:A 0.000120349
*RES
1 *229:X *201:A 30.405 
*END

*D_NET *56 0.00308151
*CONN
*I *202:A I *D sky130_fd_sc_hd__or2_1
*I *230:X O *D sky130_fd_sc_hd__clkbuf_1
*CAP
1 *202:A 0.000410364
2 *230:X 0.000410364
3 *202:A *203:A 0.000556921
4 *199:A *202:A 6.59822e-05
5 *200:A *202:A 0.000236355
6 *201:A *202:A 0.00101105
7 *46:16 *202:A 0.000390466
*RES
1 *230:X *202:A 23.025 
*END

*D_NET *57 0.00576612
*CONN
*I *211:C I *D sky130_fd_sc_hd__and3b_1
*I *195:A I *D sky130_fd_sc_hd__inv_2
*I *231:X O *D sky130_fd_sc_hd__buf_1
*CAP
1 *211:C 0.000334038
2 *195:A 2.6247e-05
3 *231:X 0.00175807
4 *57:16 0.00211835
5 *195:A *78:27 0.00016031
6 *195:A *80:47 0.00016031
7 *211:C *208:A3 0.000385476
8 *211:C *256:A 0
9 *211:C *78:31 0.000153263
10 *57:16 *78:31 2.84864e-05
11 *57:16 *80:38 0
12 *198:A *57:16 9.22931e-05
13 *201:A *57:16 0
14 *210:A1 *211:C 0.000501023
15 *217:A2 *211:C 0
16 *42:10 *211:C 3.87523e-05
17 *45:10 *211:C 9.50342e-06
*RES
1 *231:X *57:16 30.775 
2 *57:16 *195:A 5.085 
3 *57:16 *211:C 16.105 
*END

*D_NET *58 0.00191161
*CONN
*I *203:A I *D sky130_fd_sc_hd__or2_1
*I *232:X O *D sky130_fd_sc_hd__clkbuf_1
*CAP
1 *203:A 0.000638349
2 *232:X 0.000638349
3 *203:A *246:A 1.94892e-05
4 *203:A *248:A 0
5 *203:A *250:A 4.83411e-05
6 *199:A *203:A 0
7 *200:A *203:A 0
8 *200:B *203:A 0
9 *201:A *203:A 1.01661e-05
10 *202:A *203:A 0.000556921
11 *203:B *203:A 0
*RES
1 *232:X *203:A 21.075 
*END

*D_NET *59 0.000760121
*CONN
*I *240:A I *D sky130_fd_sc_hd__buf_2
*I *210:X O *D sky130_fd_sc_hd__o21a_1
*CAP
1 *240:A 0.000142069
2 *210:X 0.000142069
3 *240:A *204:C 4.66108e-05
4 *240:A *206:A3 6.69608e-06
5 *240:A *78:31 2.16389e-05
6 *240:A *78:35 0.000120655
7 dec[0] *240:A 0.000187311
8 *204:B *240:A 9.30717e-05
*RES
1 *210:X *240:A 10.86 
*END

*D_NET *60 0.000261289
*CONN
*I *241:A I *D sky130_fd_sc_hd__buf_2
*I *209:X O *D sky130_fd_sc_hd__a31o_1
*CAP
1 *241:A 5.64413e-05
2 *209:X 5.64413e-05
3 *241:A *209:A3 7.55313e-05
4 dec[5] *241:A 7.28749e-05
*RES
1 *209:X *241:A 8.835 
*END

*D_NET *61 0.00043647
*CONN
*I *242:A I *D sky130_fd_sc_hd__buf_2
*I *208:X O *D sky130_fd_sc_hd__a31o_1
*CAP
1 *242:A 6.63297e-05
2 *208:X 6.63297e-05
3 *242:A *208:A3 0
4 *242:A *244:A 0.000229065
5 dec[4] *242:A 7.47457e-05
*RES
1 *208:X *242:A 5.39 
*END

*D_NET *62 0.000699831
*CONN
*I *243:A I *D sky130_fd_sc_hd__buf_2