* NGSPICE file created from counter_all.ext - technology: sky130A

* Black-box entry subcircuit for sky130_fd_sc_hd__tapvpwrvgnd_1 abstract view
.subckt sky130_fd_sc_hd__tapvpwrvgnd_1 VGND VPWR
.ends

* Black-box entry subcircuit for sky130_fd_sc_hd__decap_8 abstract view
.subckt sky130_fd_sc_hd__decap_8 VGND VNB VPB VPWR
.ends

* Black-box entry subcircuit for sky130_ef_sc_hd__decap_12 abstract view
.subckt sky130_ef_sc_hd__decap_12 VPWR VGND VPB VNB
.ends

* Black-box entry subcircuit for sky130_fd_sc_hd__a311o_1 abstract view
.subckt sky130_fd_sc_hd__a311o_1 A1 A2 A3 B1 C1 VGND VNB VPB VPWR X
.ends

* Black-box entry subcircuit for sky130_fd_sc_hd__decap_3 abstract view
.subckt sky130_fd_sc_hd__decap_3 VGND VNB VPB VPWR
.ends

* Black-box entry subcircuit for sky130_fd_sc_hd__fill_1 abstract view
.subckt sky130_fd_sc_hd__fill_1 VGND VNB VPB VPWR
.ends

* Black-box entry subcircuit for sky130_fd_sc_hd__and2b_1 abstract view
.subckt sky130_fd_sc_hd__and2b_1 A_N B VGND VNB VPB VPWR X
.ends

* Black-box entry subcircuit for sky130_fd_sc_hd__xor2_1 abstract view
.subckt sky130_fd_sc_hd__xor2_1 A B VGND VNB VPB VPWR X
.ends

* Black-box entry subcircuit for sky130_fd_sc_hd__nand2b_4 abstract view
.subckt sky130_fd_sc_hd__nand2b_4 A_N B VGND VNB VPB VPWR Y
.ends

* Black-box entry subcircuit for sky130_fd_sc_hd__nor2_1 abstract view
.subckt sky130_fd_sc_hd__nor2_1 A B VGND VNB VPB VPWR Y
.ends

* Black-box entry subcircuit for sky130_fd_sc_hd__and3_1 abstract view
.subckt sky130_fd_sc_hd__and3_1 A B C VGND VNB VPB VPWR X
.ends

* Black-box entry subcircuit for sky130_fd_sc_hd__mux2_1 abstract view
.subckt sky130_fd_sc_hd__mux2_1 A0 A1 S VGND VNB VPB VPWR X
.ends

* Black-box entry subcircuit for sky130_fd_sc_hd__clkbuf_1 abstract view
.subckt sky130_fd_sc_hd__clkbuf_1 A VGND VNB VPB VPWR X
.ends

* Black-box entry subcircuit for sky130_fd_sc_hd__buf_2 abstract view
.subckt sky130_fd_sc_hd__buf_2 A VGND VNB VPB VPWR X
.ends

* Black-box entry subcircuit for sky130_fd_sc_hd__dfrtp_2 abstract view
.subckt sky130_fd_sc_hd__dfrtp_2 CLK D RESET_B VGND VNB VPB VPWR Q
.ends

* Black-box entry subcircuit for sky130_fd_sc_hd__o311a_1 abstract view
.subckt sky130_fd_sc_hd__o311a_1 A1 A2 A3 B1 C1 VGND VNB VPB VPWR X
.ends

* Black-box entry subcircuit for sky130_fd_sc_hd__o21ba_1 abstract view
.subckt sky130_fd_sc_hd__o21ba_1 A1 A2 B1_N VGND VNB VPB VPWR X
.ends

* Black-box entry subcircuit for sky130_fd_sc_hd__a21o_1 abstract view
.subckt sky130_fd_sc_hd__a21o_1 A1 A2 B1 VGND VNB VPB VPWR X
.ends

* Black-box entry subcircuit for sky130_fd_sc_hd__a21oi_1 abstract view
.subckt sky130_fd_sc_hd__a21oi_1 A1 A2 B1 VGND VNB VPB VPWR Y
.ends

* Black-box entry subcircuit for sky130_fd_sc_hd__and4_1 abstract view
.subckt sky130_fd_sc_hd__and4_1 A B C D VGND VNB VPB VPWR X
.ends

* Black-box entry subcircuit for sky130_fd_sc_hd__a31o_1 abstract view
.subckt sky130_fd_sc_hd__a31o_1 A1 A2 A3 B1 VGND VNB VPB VPWR X
.ends

* Black-box entry subcircuit for sky130_fd_sc_hd__and2_1 abstract view
.subckt sky130_fd_sc_hd__and2_1 A B VGND VNB VPB VPWR X
.ends

* Black-box entry subcircuit for sky130_fd_sc_hd__dfrtp_4 abstract view
.subckt sky130_fd_sc_hd__dfrtp_4 CLK D RESET_B VGND VNB VPB VPWR Q
.ends

* Black-box entry subcircuit for sky130_fd_sc_hd__fill_2 abstract view
.subckt sky130_fd_sc_hd__fill_2 VGND VNB VPB VPWR
.ends

* Black-box entry subcircuit for sky130_fd_sc_hd__inv_2 abstract view
.subckt sky130_fd_sc_hd__inv_2 A VGND VNB VPB VPWR Y
.ends

* Black-box entry subcircuit for sky130_fd_sc_hd__nand2b_1 abstract view
.subckt sky130_fd_sc_hd__nand2b_1 A_N B VGND VNB VPB VPWR Y
.ends

* Black-box entry subcircuit for sky130_fd_sc_hd__o2bb2a_1 abstract view
.subckt sky130_fd_sc_hd__o2bb2a_1 A1_N A2_N B1 B2 VGND VNB VPB VPWR X
.ends

* Black-box entry subcircuit for sky130_fd_sc_hd__decap_4 abstract view
.subckt sky130_fd_sc_hd__decap_4 VGND VNB VPB VPWR
.ends

* Black-box entry subcircuit for sky130_fd_sc_hd__nand2_1 abstract view
.subckt sky130_fd_sc_hd__nand2_1 A B VGND VNB VPB VPWR Y
.ends

* Black-box entry subcircuit for sky130_fd_sc_hd__o21ai_2 abstract view
.subckt sky130_fd_sc_hd__o21ai_2 A1 A2 B1 VGND VNB VPB VPWR Y
.ends

* Black-box entry subcircuit for sky130_fd_sc_hd__a22oi_1 abstract view
.subckt sky130_fd_sc_hd__a22oi_1 A1 A2 B1 B2 VGND VNB VPB VPWR Y
.ends

* Black-box entry subcircuit for sky130_fd_sc_hd__o22a_1 abstract view
.subckt sky130_fd_sc_hd__o22a_1 A1 A2 B1 B2 VGND VNB VPB VPWR X
.ends

* Black-box entry subcircuit for sky130_fd_sc_hd__or2_1 abstract view
.subckt sky130_fd_sc_hd__or2_1 A B VGND VNB VPB VPWR X
.ends

* Black-box entry subcircuit for sky130_fd_sc_hd__clkbuf_4 abstract view
.subckt sky130_fd_sc_hd__clkbuf_4 A VGND VNB VPB VPWR X
.ends

* Black-box entry subcircuit for sky130_fd_sc_hd__dfrtp_1 abstract view
.subckt sky130_fd_sc_hd__dfrtp_1 CLK D RESET_B VGND VNB VPB VPWR Q
.ends

* Black-box entry subcircuit for sky130_fd_sc_hd__decap_6 abstract view
.subckt sky130_fd_sc_hd__decap_6 VGND VNB VPB VPWR
.ends

* Black-box entry subcircuit for sky130_fd_sc_hd__or3_1 abstract view
.subckt sky130_fd_sc_hd__or3_1 A B C VGND VNB VPB VPWR X
.ends

* Black-box entry subcircuit for sky130_fd_sc_hd__bufinv_16 abstract view
.subckt sky130_fd_sc_hd__bufinv_16 A VGND VNB VPB VPWR Y
.ends

* Black-box entry subcircuit for sky130_fd_sc_hd__and2b_2 abstract view
.subckt sky130_fd_sc_hd__and2b_2 A_N B VGND VNB VPB VPWR X
.ends

* Black-box entry subcircuit for sky130_fd_sc_hd__o21ai_1 abstract view
.subckt sky130_fd_sc_hd__o21ai_1 A1 A2 B1 VGND VNB VPB VPWR Y
.ends

* Black-box entry subcircuit for sky130_fd_sc_hd__o32a_1 abstract view
.subckt sky130_fd_sc_hd__o32a_1 A1 A2 A3 B1 B2 VGND VNB VPB VPWR X
.ends

* Black-box entry subcircuit for sky130_fd_sc_hd__o31a_1 abstract view
.subckt sky130_fd_sc_hd__o31a_1 A1 A2 A3 B1 VGND VNB VPB VPWR X
.ends

* Black-box entry subcircuit for sky130_fd_sc_hd__clkbuf_8 abstract view
.subckt sky130_fd_sc_hd__clkbuf_8 A VGND VNB VPB VPWR X
.ends

* Black-box entry subcircuit for sky130_fd_sc_hd__o21a_1 abstract view
.subckt sky130_fd_sc_hd__o21a_1 A1 A2 B1 VGND VNB VPB VPWR X
.ends

* Black-box entry subcircuit for sky130_fd_sc_hd__a21boi_1 abstract view
.subckt sky130_fd_sc_hd__a21boi_1 A1 A2 B1_N VGND VNB VPB VPWR Y
.ends

* Black-box entry subcircuit for sky130_fd_sc_hd__and4b_1 abstract view
.subckt sky130_fd_sc_hd__and4b_1 A_N B C D VGND VNB VPB VPWR X
.ends

* Black-box entry subcircuit for sky130_fd_sc_hd__or3b_1 abstract view
.subckt sky130_fd_sc_hd__or3b_1 A B C_N VGND VNB VPB VPWR X
.ends

* Black-box entry subcircuit for sky130_fd_sc_hd__clkbuf_16 abstract view
.subckt sky130_fd_sc_hd__clkbuf_16 A VGND VNB VPB VPWR X
.ends

* Black-box entry subcircuit for sky130_fd_sc_hd__a22o_1 abstract view
.subckt sky130_fd_sc_hd__a22o_1 A1 A2 B1 B2 VGND VNB VPB VPWR X
.ends

* Black-box entry subcircuit for sky130_fd_sc_hd__dfstp_1 abstract view
.subckt sky130_fd_sc_hd__dfstp_1 CLK D SET_B VGND VNB VPB VPWR Q
.ends

* Black-box entry subcircuit for sky130_fd_sc_hd__a41o_1 abstract view
.subckt sky130_fd_sc_hd__a41o_1 A1 A2 A3 A4 B1 VGND VNB VPB VPWR X
.ends

* Black-box entry subcircuit for sky130_fd_sc_hd__o211a_1 abstract view
.subckt sky130_fd_sc_hd__o211a_1 A1 A2 B1 C1 VGND VNB VPB VPWR X
.ends

* Black-box entry subcircuit for sky130_fd_sc_hd__clkbuf_2 abstract view
.subckt sky130_fd_sc_hd__clkbuf_2 A VGND VNB VPB VPWR X
.ends

* Black-box entry subcircuit for sky130_fd_sc_hd__nor2_2 abstract view
.subckt sky130_fd_sc_hd__nor2_2 A B VGND VNB VPB VPWR Y
.ends

* Black-box entry subcircuit for sky130_fd_sc_hd__or4_2 abstract view
.subckt sky130_fd_sc_hd__or4_2 A B C D VGND VNB VPB VPWR X
.ends

* Black-box entry subcircuit for sky130_fd_sc_hd__nand2_2 abstract view
.subckt sky130_fd_sc_hd__nand2_2 A B VGND VNB VPB VPWR Y
.ends

* Black-box entry subcircuit for sky130_fd_sc_hd__a21bo_1 abstract view
.subckt sky130_fd_sc_hd__a21bo_1 A1 A2 B1_N VGND VNB VPB VPWR X
.ends

* Black-box entry subcircuit for sky130_fd_sc_hd__a21oi_2 abstract view
.subckt sky130_fd_sc_hd__a21oi_2 A1 A2 B1 VGND VNB VPB VPWR Y
.ends

* Black-box entry subcircuit for sky130_fd_sc_hd__or4_1 abstract view
.subckt sky130_fd_sc_hd__or4_1 A B C D VGND VNB VPB VPWR X
.ends

* Black-box entry subcircuit for sky130_fd_sc_hd__xnor2_1 abstract view
.subckt sky130_fd_sc_hd__xnor2_1 A B VGND VNB VPB VPWR Y
.ends

* Black-box entry subcircuit for sky130_fd_sc_hd__nand3_1 abstract view
.subckt sky130_fd_sc_hd__nand3_1 A B C VGND VNB VPB VPWR Y
.ends

* Black-box entry subcircuit for sky130_fd_sc_hd__or3b_2 abstract view
.subckt sky130_fd_sc_hd__or3b_2 A B C_N VGND VNB VPB VPWR X
.ends

* Black-box entry subcircuit for sky130_fd_sc_hd__dlymetal6s2s_1 abstract view
.subckt sky130_fd_sc_hd__dlymetal6s2s_1 A VGND VNB VPB VPWR X
.ends

* Black-box entry subcircuit for sky130_fd_sc_hd__buf_1 abstract view
.subckt sky130_fd_sc_hd__buf_1 A VGND VNB VPB VPWR X
.ends

* Black-box entry subcircuit for sky130_fd_sc_hd__nand3_2 abstract view
.subckt sky130_fd_sc_hd__nand3_2 A B C VGND VNB VPB VPWR Y
.ends

* Black-box entry subcircuit for sky130_fd_sc_hd__nor3_2 abstract view
.subckt sky130_fd_sc_hd__nor3_2 A B C VGND VNB VPB VPWR Y
.ends

* Black-box entry subcircuit for sky130_fd_sc_hd__a211o_2 abstract view
.subckt sky130_fd_sc_hd__a211o_2 A1 A2 B1 C1 VGND VNB VPB VPWR X
.ends

* Black-box entry subcircuit for sky130_fd_sc_hd__nor3_1 abstract view
.subckt sky130_fd_sc_hd__nor3_1 A B C VGND VNB VPB VPWR Y
.ends

* Black-box entry subcircuit for sky130_fd_sc_hd__dlygate4sd3_1 abstract view
.subckt sky130_fd_sc_hd__dlygate4sd3_1 A VGND VNB VPB VPWR X
.ends

* Black-box entry subcircuit for sky130_fd_sc_hd__a221o_1 abstract view
.subckt sky130_fd_sc_hd__a221o_1 A1 A2 B1 B2 C1 VGND VNB VPB VPWR X
.ends

* Black-box entry subcircuit for sky130_fd_sc_hd__a32o_1 abstract view
.subckt sky130_fd_sc_hd__a32o_1 A1 A2 A3 B1 B2 VGND VNB VPB VPWR X
.ends

* Black-box entry subcircuit for sky130_fd_sc_hd__or3_2 abstract view
.subckt sky130_fd_sc_hd__or3_2 A B C VGND VNB VPB VPWR X
.ends

* Black-box entry subcircuit for sky130_fd_sc_hd__a211o_1 abstract view
.subckt sky130_fd_sc_hd__a211o_1 A1 A2 B1 C1 VGND VNB VPB VPWR X
.ends

* Black-box entry subcircuit for sky130_fd_sc_hd__nand3_4 abstract view
.subckt sky130_fd_sc_hd__nand3_4 A B C VGND VNB VPB VPWR Y
.ends

* Black-box entry subcircuit for sky130_fd_sc_hd__a2111o_1 abstract view
.subckt sky130_fd_sc_hd__a2111o_1 A1 A2 B1 C1 D1 VGND VNB VPB VPWR X
.ends

* Black-box entry subcircuit for sky130_fd_sc_hd__a2bb2o_1 abstract view
.subckt sky130_fd_sc_hd__a2bb2o_1 A1_N A2_N B1 B2 VGND VNB VPB VPWR X
.ends

* Black-box entry subcircuit for sky130_fd_sc_hd__o21bai_4 abstract view
.subckt sky130_fd_sc_hd__o21bai_4 A1 A2 B1_N VGND VNB VPB VPWR Y
.ends

* Black-box entry subcircuit for sky130_fd_sc_hd__o21ai_4 abstract view
.subckt sky130_fd_sc_hd__o21ai_4 A1 A2 B1 VGND VNB VPB VPWR Y
.ends

* Black-box entry subcircuit for sky130_fd_sc_hd__or3b_4 abstract view
.subckt sky130_fd_sc_hd__or3b_4 A B C_N VGND VNB VPB VPWR X
.ends

* Black-box entry subcircuit for sky130_fd_sc_hd__nand2b_2 abstract view
.subckt sky130_fd_sc_hd__nand2b_2 A_N B VGND VNB VPB VPWR Y
.ends

* Black-box entry subcircuit for sky130_fd_sc_hd__nand3b_1 abstract view
.subckt sky130_fd_sc_hd__nand3b_1 A_N B C VGND VNB VPB VPWR Y
.ends

* Black-box entry subcircuit for sky130_fd_sc_hd__o21a_2 abstract view
.subckt sky130_fd_sc_hd__o21a_2 A1 A2 B1 VGND VNB VPB VPWR X
.ends

.subckt counter_all VGND VPWR clk day[0] day[1] day[2] day[3] day[4] day_num[0] day_num[1]
+ day_num[2] day_num[3] day_num[4] dec[0] dec[1] dec[2] dec[3] dec[4] dec[5] done_dec[0]
+ done_dec[1] done_dec[2] done_dec[3] done_dec[4] done_inc[0] done_inc[1] done_inc[2]
+ done_inc[3] done_inc[4] en[0] en[1] en[2] en[3] en[4] en[5] hour[0] hour[1] hour[2]
+ hour[3] hour[4] hour_num[0] hour_num[1] hour_num[2] hour_num[3] hour_num[4] inc[0]
+ inc[1] inc[2] inc[3] inc[4] inc[5] minute[0] minute[1] minute[2] minute[3] minute[4]
+ minute[5] month[0] month[1] month[2] month[3] reset_n second[0] second[1] second[2]
+ second[3] second[4] second[5] year[0] year[1] year[2] year[3] year[4] year[5] year[6]
XTAP_TAPCELL_ROW_24_117 VGND VPWR sky130_fd_sc_hd__tapvpwrvgnd_1
XFILLER_26_85 VGND VGND VPWR VPWR sky130_fd_sc_hd__decap_8
XFILLER_26_41 VPWR VGND VPWR VGND sky130_ef_sc_hd__decap_12
X_432_ _068_ _072_ _117_ _140_ _141_ VGND VGND VPWR VPWR _142_ sky130_fd_sc_hd__a311o_1
XPHY_EDGE_ROW_21_Left_48 VGND VGND VPWR VPWR sky130_fd_sc_hd__decap_3
XFILLER_13_144 VGND VGND VPWR VPWR sky130_fd_sc_hd__fill_1
X_363_ net5 net34 VGND VGND VPWR VPWR _083_ sky130_fd_sc_hd__and2b_1
X_501_ net34 _195_ VGND VGND VPWR VPWR _205_ sky130_fd_sc_hd__xor2_1
XTAP_TAPCELL_ROW_21_109 VGND VPWR sky130_fd_sc_hd__tapvpwrvgnd_1
XTAP_TAPCELL_ROW_12_87 VGND VPWR sky130_fd_sc_hd__tapvpwrvgnd_1
X_346_ net49 net22 VGND VGND VPWR VPWR _068_ sky130_fd_sc_hd__nand2b_4
X_415_ net18 net19 VGND VGND VPWR VPWR _127_ sky130_fd_sc_hd__nor2_1
XTAP_TAPCELL_ROW_8_77 VGND VPWR sky130_fd_sc_hd__tapvpwrvgnd_1
XFILLER_10_147 VGND VGND VPWR VPWR sky130_fd_sc_hd__fill_1
XPHY_EDGE_ROW_24_Left_51 VGND VGND VPWR VPWR sky130_fd_sc_hd__decap_3
X_329_ net53 net54 net55 VGND VGND VPWR VPWR _053_ sky130_fd_sc_hd__and3_1
X_594_ _283_ net60 _280_ VGND VGND VPWR VPWR _027_ sky130_fd_sc_hd__mux2_1
XFILLER_20_76 VGND VGND VPWR VPWR sky130_fd_sc_hd__fill_1
X_663_ day_inst.done_inc VGND VGND VPWR VPWR net43 sky130_fd_sc_hd__clkbuf_1
XFILLER_13_3 VPWR VGND VPWR VGND sky130_ef_sc_hd__decap_12
Xoutput64 net64 VGND VGND VPWR VPWR second[4] sky130_fd_sc_hd__buf_2
Xoutput53 net53 VGND VGND VPWR VPWR minute[3] sky130_fd_sc_hd__buf_2
X_646_ clknet_2_2__leaf_clk _024_ net78 VGND VGND VPWR VPWR net53 sky130_fd_sc_hd__dfrtp_2
X_577_ _262_ _268_ _269_ _267_ _255_ VGND VGND VPWR VPWR _270_ sky130_fd_sc_hd__o311a_1
Xoutput31 net31 VGND VGND VPWR VPWR day[1] sky130_fd_sc_hd__buf_2
Xoutput42 net42 VGND VGND VPWR VPWR done_inc[2] sky130_fd_sc_hd__buf_2
XTAP_TAPCELL_ROW_24_118 VGND VPWR sky130_fd_sc_hd__tapvpwrvgnd_1
X_431_ net49 net21 _057_ VGND VGND VPWR VPWR _141_ sky130_fd_sc_hd__o21ba_1
XFILLER_26_53 VGND VGND VPWR VPWR sky130_fd_sc_hd__decap_3
X_362_ net73 _039_ _081_ VGND VGND VPWR VPWR _082_ sky130_fd_sc_hd__a21o_1
X_500_ _164_ _201_ _203_ VGND VGND VPWR VPWR _204_ sky130_fd_sc_hd__a21oi_1
X_629_ clknet_2_3__leaf_clk _007_ net78 VGND VGND VPWR VPWR net48 sky130_fd_sc_hd__dfrtp_2
XTAP_TAPCELL_ROW_12_88 VGND VPWR sky130_fd_sc_hd__tapvpwrvgnd_1
XTAP_TAPCELL_ROW_8_78 VGND VPWR sky130_fd_sc_hd__tapvpwrvgnd_1
X_345_ _063_ _064_ _065_ _066_ VGND VGND VPWR VPWR _067_ sky130_fd_sc_hd__and4_1
X_414_ _068_ _072_ _117_ _125_ VGND VGND VPWR VPWR _126_ sky130_fd_sc_hd__a31o_1
XPHY_EDGE_ROW_21_Right_21 VGND VGND VPWR VPWR sky130_fd_sc_hd__decap_3
XPHY_EDGE_ROW_12_Right_12 VGND VGND VPWR VPWR sky130_fd_sc_hd__decap_3
XFILLER_2_155 VGND VGND VPWR VPWR sky130_fd_sc_hd__fill_1
X_328_ net7 _052_ VGND VGND VPWR VPWR minute_inst.done_dec sky130_fd_sc_hd__and2_1
X_662_ hour_inst.done_inc VGND VGND VPWR VPWR net42 sky130_fd_sc_hd__clkbuf_1
X_593_ net62 _046_ net60 VGND VGND VPWR VPWR _283_ sky130_fd_sc_hd__a21oi_1
XPHY_EDGE_ROW_6_Right_6 VGND VGND VPWR VPWR sky130_fd_sc_hd__decap_3
Xoutput65 net65 VGND VGND VPWR VPWR second[5] sky130_fd_sc_hd__buf_2
Xoutput54 net54 VGND VGND VPWR VPWR minute[4] sky130_fd_sc_hd__buf_2
XFILLER_15_99 VPWR VGND VPWR VGND sky130_ef_sc_hd__decap_12
X_576_ net53 _263_ VGND VGND VPWR VPWR _269_ sky130_fd_sc_hd__nor2_1
Xoutput32 net32 VGND VGND VPWR VPWR day[2] sky130_fd_sc_hd__buf_2
Xoutput43 net43 VGND VGND VPWR VPWR done_inc[3] sky130_fd_sc_hd__buf_2
X_645_ clknet_2_0__leaf_clk _023_ net76 VGND VGND VPWR VPWR net52 sky130_fd_sc_hd__dfrtp_4
XFILLER_22_113 VGND VGND VPWR VPWR sky130_fd_sc_hd__fill_2
XFILLER_26_65 VGND VGND VPWR VPWR sky130_fd_sc_hd__fill_2
X_430_ _037_ _056_ VGND VGND VPWR VPWR _140_ sky130_fd_sc_hd__nor2_1
X_361_ net2 net31 VGND VGND VPWR VPWR _081_ sky130_fd_sc_hd__and2b_1
X_628_ clknet_2_3__leaf_clk _006_ net78 VGND VGND VPWR VPWR net47 sky130_fd_sc_hd__dfrtp_4
X_559_ _254_ VGND VGND VPWR VPWR _255_ sky130_fd_sc_hd__inv_2
XFILLER_12_56 VGND VGND VPWR VPWR sky130_fd_sc_hd__fill_1
XFILLER_12_45 VGND VGND VPWR VPWR sky130_fd_sc_hd__fill_1
X_344_ net47 net20 VGND VGND VPWR VPWR _066_ sky130_fd_sc_hd__nand2b_1
X_413_ _055_ _124_ _058_ net19 VGND VGND VPWR VPWR _125_ sky130_fd_sc_hd__o2bb2a_1
XFILLER_0_48 VGND VGND VPWR VPWR sky130_fd_sc_hd__fill_1
XFILLER_3_3 VGND VGND VPWR VPWR sky130_fd_sc_hd__decap_4
X_327_ net55 _051_ VGND VGND VPWR VPWR _052_ sky130_fd_sc_hd__and2b_1
XFILLER_9_57 VGND VGND VPWR VPWR sky130_fd_sc_hd__decap_4
XTAP_TAPCELL_ROW_5_69 VGND VPWR sky130_fd_sc_hd__tapvpwrvgnd_1
X_592_ net62 _046_ VGND VGND VPWR VPWR _282_ sky130_fd_sc_hd__nand2_1
X_661_ minute_inst.done_inc VGND VGND VPWR VPWR net41 sky130_fd_sc_hd__clkbuf_1
XFILLER_6_69 VGND VGND VPWR VPWR sky130_fd_sc_hd__fill_1
Xoutput55 net55 VGND VGND VPWR VPWR minute[5] sky130_fd_sc_hd__buf_2
X_575_ net53 _263_ VGND VGND VPWR VPWR _268_ sky130_fd_sc_hd__and2_1
X_644_ clknet_2_2__leaf_clk _022_ net78 VGND VGND VPWR VPWR net51 sky130_fd_sc_hd__dfrtp_2
Xoutput33 net33 VGND VGND VPWR VPWR day[3] sky130_fd_sc_hd__buf_2
Xoutput44 net44 VGND VGND VPWR VPWR done_inc[4] sky130_fd_sc_hd__buf_2
Xoutput66 net66 VGND VGND VPWR VPWR year[0] sky130_fd_sc_hd__buf_2
X_360_ net73 net1 VGND VGND VPWR VPWR _080_ sky130_fd_sc_hd__nand2b_1
X_627_ clknet_2_3__leaf_clk _005_ net78 VGND VGND VPWR VPWR net46 sky130_fd_sc_hd__dfrtp_2
X_489_ _164_ _192_ _193_ _191_ _156_ VGND VGND VPWR VPWR _194_ sky130_fd_sc_hd__a311o_1
X_558_ _251_ _253_ net13 VGND VGND VPWR VPWR _254_ sky130_fd_sc_hd__o21ai_2
X_343_ net48 net21 VGND VGND VPWR VPWR _065_ sky130_fd_sc_hd__nand2b_1
X_412_ net46 net45 VGND VGND VPWR VPWR _124_ sky130_fd_sc_hd__nand2_1
X_326_ net54 _050_ VGND VGND VPWR VPWR _051_ sky130_fd_sc_hd__nor2_1
X_309_ net45 VGND VGND VPWR VPWR _036_ sky130_fd_sc_hd__inv_2
XPHY_EDGE_ROW_12_Left_39 VGND VGND VPWR VPWR sky130_fd_sc_hd__decap_3
X_591_ _280_ VGND VGND VPWR VPWR _281_ sky130_fd_sc_hd__inv_2
X_660_ second_inst.done_inc VGND VGND VPWR VPWR net40 sky130_fd_sc_hd__clkbuf_1
XFILLER_6_15 VGND VGND VPWR VPWR sky130_fd_sc_hd__decap_4
XFILLER_19_120 VGND VGND VPWR VPWR sky130_fd_sc_hd__fill_2
Xoutput45 net45 VGND VGND VPWR VPWR hour[0] sky130_fd_sc_hd__buf_2
Xoutput34 net34 VGND VGND VPWR VPWR day[4] sky130_fd_sc_hd__buf_2
Xoutput56 net56 VGND VGND VPWR VPWR month[0] sky130_fd_sc_hd__buf_2
Xoutput67 net67 VGND VGND VPWR VPWR year[1] sky130_fd_sc_hd__buf_2
XFILLER_16_112 VPWR VGND VPWR VGND sky130_ef_sc_hd__decap_12
X_574_ _050_ _266_ _252_ VGND VGND VPWR VPWR _267_ sky130_fd_sc_hd__a21o_1
XFILLER_11_3 VPWR VGND VPWR VGND sky130_ef_sc_hd__decap_12
X_643_ clknet_2_1__leaf_clk _021_ net77 VGND VGND VPWR VPWR net50 sky130_fd_sc_hd__dfrtp_4
XPHY_EDGE_ROW_15_Left_42 VGND VGND VPWR VPWR sky130_fd_sc_hd__decap_3
XFILLER_7_80 VGND VGND VPWR VPWR sky130_fd_sc_hd__fill_1
X_626_ clknet_2_3__leaf_clk _004_ net78 VGND VGND VPWR VPWR net45 sky130_fd_sc_hd__dfrtp_4
X_488_ net4 _074_ _183_ net33 VGND VGND VPWR VPWR _193_ sky130_fd_sc_hd__a22oi_1
X_557_ net7 net24 VGND VGND VPWR VPWR _253_ sky130_fd_sc_hd__and2b_1
X_342_ net20 net47 VGND VGND VPWR VPWR _064_ sky130_fd_sc_hd__nand2b_1
X_411_ net45 _112_ _122_ _123_ VGND VGND VPWR VPWR _004_ sky130_fd_sc_hd__o22a_1
XPHY_EDGE_ROW_0_Left_27 VGND VGND VPWR VPWR sky130_fd_sc_hd__decap_3
X_609_ net63 _291_ VGND VGND VPWR VPWR _296_ sky130_fd_sc_hd__and2_1
XFILLER_23_79 VGND VGND VPWR VPWR sky130_fd_sc_hd__fill_2
XFILLER_23_13 VPWR VGND VPWR VGND sky130_ef_sc_hd__decap_12
XTAP_TAPCELL_ROW_13_90 VGND VPWR sky130_fd_sc_hd__tapvpwrvgnd_1
XFILLER_2_114 VGND VGND VPWR VPWR sky130_fd_sc_hd__fill_2
X_325_ net53 _049_ VGND VGND VPWR VPWR _050_ sky130_fd_sc_hd__or2_1
XFILLER_0_17 VGND VGND VPWR VPWR sky130_fd_sc_hd__fill_2
XFILLER_9_15 VPWR VGND VPWR VGND sky130_ef_sc_hd__decap_12
XFILLER_18_79 VGND VGND VPWR VPWR sky130_fd_sc_hd__decap_4
XTAP_TAPCELL_ROW_9_80 VGND VPWR sky130_fd_sc_hd__tapvpwrvgnd_1
XPHY_EDGE_ROW_3_Left_30 VGND VGND VPWR VPWR sky130_fd_sc_hd__decap_3
Xclkload0 clknet_2_0__leaf_clk VGND VGND VPWR VPWR clkload0/X sky130_fd_sc_hd__clkbuf_4
X_308_ net8 VGND VGND VPWR VPWR _035_ sky130_fd_sc_hd__inv_2
X_590_ _278_ _279_ net12 VGND VGND VPWR VPWR _280_ sky130_fd_sc_hd__o21ai_2
Xoutput46 net46 VGND VGND VPWR VPWR hour[1] sky130_fd_sc_hd__buf_2
Xoutput35 net35 VGND VGND VPWR VPWR done_dec[0] sky130_fd_sc_hd__buf_2
Xoutput57 net57 VGND VGND VPWR VPWR month[1] sky130_fd_sc_hd__buf_2
XPHY_EDGE_ROW_19_Right_19 VGND VGND VPWR VPWR sky130_fd_sc_hd__decap_3
XFILLER_16_124 VPWR VGND VPWR VGND sky130_ef_sc_hd__decap_12
X_642_ clknet_2_3__leaf_clk _020_ net79 VGND VGND VPWR VPWR net72 sky130_fd_sc_hd__dfrtp_1
X_573_ net53 _049_ VGND VGND VPWR VPWR _266_ sky130_fd_sc_hd__nand2_1
Xoutput68 net68 VGND VGND VPWR VPWR year[2] sky130_fd_sc_hd__buf_2
XFILLER_22_105 VGND VGND VPWR VPWR sky130_fd_sc_hd__decap_8
X_625_ clknet_2_0__leaf_clk _003_ net76 VGND VGND VPWR VPWR net59 sky130_fd_sc_hd__dfrtp_4
X_487_ net33 _183_ VGND VGND VPWR VPWR _192_ sky130_fd_sc_hd__or2_1
X_556_ net24 net7 VGND VGND VPWR VPWR _252_ sky130_fd_sc_hd__nand2b_1
X_341_ net21 net48 VGND VGND VPWR VPWR _063_ sky130_fd_sc_hd__nand2b_1
X_410_ _036_ _118_ _113_ VGND VGND VPWR VPWR _123_ sky130_fd_sc_hd__a21o_1
XFILLER_12_15 VPWR VGND VPWR VGND sky130_ef_sc_hd__decap_12
X_608_ _044_ _294_ VGND VGND VPWR VPWR _295_ sky130_fd_sc_hd__nand2_1
X_539_ net70 _218_ VGND VGND VPWR VPWR _238_ sky130_fd_sc_hd__and2_1
XFILLER_23_25 VGND VGND VPWR VPWR sky130_fd_sc_hd__decap_6
XFILLER_0_29 VGND VGND VPWR VPWR sky130_fd_sc_hd__fill_1
XFILLER_9_27 VPWR VGND VPWR VGND sky130_ef_sc_hd__decap_12
X_324_ net51 net50 net52 VGND VGND VPWR VPWR _049_ sky130_fd_sc_hd__or3_1
XFILLER_1_3 VGND VGND VPWR VPWR sky130_fd_sc_hd__decap_6
Xclkload1 clknet_2_1__leaf_clk VGND VGND VPWR VPWR clkload1/Y sky130_fd_sc_hd__bufinv_16
X_307_ net25 VGND VGND VPWR VPWR _034_ sky130_fd_sc_hd__inv_2
XFILLER_20_15 VPWR VGND VPWR VGND sky130_ef_sc_hd__decap_12
XTAP_TAPCELL_ROW_10_81 VGND VPWR sky130_fd_sc_hd__tapvpwrvgnd_1
XTAP_TAPCELL_ROW_6_71 VGND VPWR sky130_fd_sc_hd__tapvpwrvgnd_1
XFILLER_10_70 VGND VGND VPWR VPWR sky130_fd_sc_hd__decap_3
XFILLER_15_15 VPWR VGND VPWR VGND sky130_ef_sc_hd__decap_12
XFILLER_16_136 VGND VGND VPWR VPWR sky130_fd_sc_hd__decap_4
Xoutput47 net47 VGND VGND VPWR VPWR hour[2] sky130_fd_sc_hd__buf_2
X_641_ clknet_2_3__leaf_clk _019_ net79 VGND VGND VPWR VPWR net71 sky130_fd_sc_hd__dfrtp_1
Xoutput36 net36 VGND VGND VPWR VPWR done_dec[1] sky130_fd_sc_hd__buf_2
Xoutput58 net58 VGND VGND VPWR VPWR month[2] sky130_fd_sc_hd__buf_2
Xoutput69 net69 VGND VGND VPWR VPWR year[3] sky130_fd_sc_hd__buf_2
X_572_ net52 _265_ _255_ VGND VGND VPWR VPWR _023_ sky130_fd_sc_hd__mux2_1
XFILLER_7_71 VGND VGND VPWR VPWR sky130_fd_sc_hd__fill_1
X_486_ _085_ _087_ _162_ _190_ VGND VGND VPWR VPWR _191_ sky130_fd_sc_hd__and4_1
X_624_ clknet_2_0__leaf_clk _002_ net76 VGND VGND VPWR VPWR net58 sky130_fd_sc_hd__dfrtp_1
X_555_ net24 net7 VGND VGND VPWR VPWR _251_ sky130_fd_sc_hd__and2b_2
XFILLER_12_27 VGND VGND VPWR VPWR sky130_fd_sc_hd__fill_1
X_607_ net62 _043_ net63 VGND VGND VPWR VPWR _294_ sky130_fd_sc_hd__o21ai_1
X_340_ _059_ _060_ _061_ VGND VGND VPWR VPWR _062_ sky130_fd_sc_hd__and3_1
X_538_ _209_ _236_ _237_ _235_ net69 VGND VGND VPWR VPWR _017_ sky130_fd_sc_hd__o32a_1
X_469_ _163_ _170_ _171_ _158_ VGND VGND VPWR VPWR _176_ sky130_fd_sc_hd__o31a_1
XFILLER_4_83 VGND VGND VPWR VPWR sky130_fd_sc_hd__fill_1
XFILLER_9_39 VGND VGND VPWR VPWR sky130_fd_sc_hd__decap_3
X_323_ net51 net50 VGND VGND VPWR VPWR _048_ sky130_fd_sc_hd__nor2_1
Xclkload2 clknet_2_2__leaf_clk VGND VGND VPWR VPWR clkload2/X sky130_fd_sc_hd__clkbuf_8
XFILLER_18_15 VPWR VGND VPWR VGND sky130_ef_sc_hd__decap_12
XFILLER_24_80 VGND VGND VPWR VPWR sky130_fd_sc_hd__decap_4
X_306_ net26 VGND VGND VPWR VPWR _033_ sky130_fd_sc_hd__inv_2
XFILLER_20_27 VGND VGND VPWR VPWR sky130_fd_sc_hd__fill_1
XFILLER_6_29 VGND VGND VPWR VPWR sky130_fd_sc_hd__decap_3
XFILLER_10_82 VGND VGND VPWR VPWR sky130_fd_sc_hd__fill_2
XFILLER_10_93 VGND VGND VPWR VPWR sky130_fd_sc_hd__fill_1
XTAP_TAPCELL_ROW_10_82 VGND VPWR sky130_fd_sc_hd__tapvpwrvgnd_1
XFILLER_15_27 VPWR VGND VPWR VGND sky130_ef_sc_hd__decap_12
XTAP_TAPCELL_ROW_6_72 VGND VPWR sky130_fd_sc_hd__tapvpwrvgnd_1
XTAP_TAPCELL_ROW_26_121 VGND VPWR sky130_fd_sc_hd__tapvpwrvgnd_1
Xoutput48 net48 VGND VGND VPWR VPWR hour[3] sky130_fd_sc_hd__buf_2
X_640_ clknet_2_3__leaf_clk _018_ net77 VGND VGND VPWR VPWR net70 sky130_fd_sc_hd__dfrtp_2
XPHY_EDGE_ROW_1_Right_1 VGND VGND VPWR VPWR sky130_fd_sc_hd__decap_3
Xoutput37 net37 VGND VGND VPWR VPWR done_dec[2] sky130_fd_sc_hd__buf_2
Xoutput59 net59 VGND VGND VPWR VPWR month[3] sky130_fd_sc_hd__buf_2
X_571_ _052_ _260_ _264_ VGND VGND VPWR VPWR _265_ sky130_fd_sc_hd__o21ai_1
XFILLER_26_15 VPWR VGND VPWR VGND sky130_ef_sc_hd__decap_12
X_554_ _250_ net72 _209_ VGND VGND VPWR VPWR _020_ sky130_fd_sc_hd__mux2_1
X_623_ clknet_2_0__leaf_clk _001_ net76 VGND VGND VPWR VPWR net57 sky130_fd_sc_hd__dfrtp_4
X_485_ net4 _177_ VGND VGND VPWR VPWR _190_ sky130_fd_sc_hd__xor2_1
XPHY_EDGE_ROW_19_Left_46 VGND VGND VPWR VPWR sky130_fd_sc_hd__decap_3
X_606_ net62 _281_ _288_ _293_ VGND VGND VPWR VPWR _029_ sky130_fd_sc_hd__o22a_1
X_399_ _110_ _111_ net14 VGND VGND VPWR VPWR _112_ sky130_fd_sc_hd__o21a_1
X_468_ _164_ _169_ _172_ _174_ VGND VGND VPWR VPWR _175_ sky130_fd_sc_hd__a31o_1
X_537_ net69 _231_ _216_ VGND VGND VPWR VPWR _237_ sky130_fd_sc_hd__a21boi_1
X_322_ net62 _046_ _047_ net23 VGND VGND VPWR VPWR second_inst.done_inc sky130_fd_sc_hd__and4b_1
XFILLER_18_27 VGND VGND VPWR VPWR sky130_fd_sc_hd__fill_1
XFILLER_6_19 VGND VGND VPWR VPWR sky130_fd_sc_hd__fill_1
XPHY_EDGE_ROW_7_Left_34 VGND VGND VPWR VPWR sky130_fd_sc_hd__decap_3
XTAP_TAPCELL_ROW_10_83 VGND VPWR sky130_fd_sc_hd__tapvpwrvgnd_1
XTAP_TAPCELL_ROW_6_73 VGND VPWR sky130_fd_sc_hd__tapvpwrvgnd_1
XTAP_TAPCELL_ROW_26_122 VGND VPWR sky130_fd_sc_hd__tapvpwrvgnd_1
Xoutput49 net49 VGND VGND VPWR VPWR hour[4] sky130_fd_sc_hd__buf_2
XFILLER_15_39 VGND VGND VPWR VPWR sky130_fd_sc_hd__decap_6
X_570_ _262_ _263_ _261_ VGND VGND VPWR VPWR _264_ sky130_fd_sc_hd__or3b_1
Xoutput38 net38 VGND VGND VPWR VPWR done_dec[3] sky130_fd_sc_hd__buf_2
XFILLER_22_119 VGND VGND VPWR VPWR sky130_fd_sc_hd__decap_3
XTAP_TAPCELL_ROW_17_100 VGND VPWR sky130_fd_sc_hd__tapvpwrvgnd_1
Xclkbuf_0_clk clk VGND VGND VPWR VPWR clknet_0_clk sky130_fd_sc_hd__clkbuf_16
XFILLER_26_27 VGND VGND VPWR VPWR sky130_fd_sc_hd__fill_1
XPHY_EDGE_ROW_24_Right_24 VGND VGND VPWR VPWR sky130_fd_sc_hd__decap_3
XTAP_TAPCELL_ROW_23_114 VGND VPWR sky130_fd_sc_hd__tapvpwrvgnd_1
XPHY_EDGE_ROW_15_Right_15 VGND VGND VPWR VPWR sky130_fd_sc_hd__decap_3
XFILLER_16_93 VGND VGND VPWR VPWR sky130_fd_sc_hd__fill_2
X_553_ _207_ _248_ _249_ _216_ VGND VGND VPWR VPWR _250_ sky130_fd_sc_hd__a22o_1
XFILLER_12_141 VGND VGND VPWR VPWR sky130_fd_sc_hd__fill_2
X_484_ net4 _177_ VGND VGND VPWR VPWR _189_ sky130_fd_sc_hd__nor2_1
X_622_ clknet_2_0__leaf_clk _000_ net76 VGND VGND VPWR VPWR net56 sky130_fd_sc_hd__dfstp_1
XTAP_TAPCELL_ROW_20_106 VGND VPWR sky130_fd_sc_hd__tapvpwrvgnd_1
XFILLER_12_29 VGND VGND VPWR VPWR sky130_fd_sc_hd__decap_6
X_605_ _289_ _290_ _292_ _280_ VGND VGND VPWR VPWR _293_ sky130_fd_sc_hd__a31o_1
XPHY_EDGE_ROW_20_Left_47 VGND VGND VPWR VPWR sky130_fd_sc_hd__decap_3
X_398_ _034_ net8 VGND VGND VPWR VPWR _111_ sky130_fd_sc_hd__nor2_1
X_467_ _085_ _087_ _162_ _173_ _156_ VGND VGND VPWR VPWR _174_ sky130_fd_sc_hd__a41o_1
XFILLER_4_63 VGND VGND VPWR VPWR sky130_fd_sc_hd__fill_1
XFILLER_4_85 VGND VGND VPWR VPWR sky130_fd_sc_hd__fill_2
X_536_ _042_ _217_ _220_ _229_ VGND VGND VPWR VPWR _236_ sky130_fd_sc_hd__o211a_1
X_321_ net60 net61 VGND VGND VPWR VPWR _047_ sky130_fd_sc_hd__and2_1
Xfanout73 net30 VGND VGND VPWR VPWR net73 sky130_fd_sc_hd__clkbuf_2
X_519_ net66 _213_ _209_ VGND VGND VPWR VPWR _222_ sky130_fd_sc_hd__a21oi_1
XPHY_EDGE_ROW_23_Left_50 VGND VGND VPWR VPWR sky130_fd_sc_hd__decap_3
XFILLER_20_29 VGND VGND VPWR VPWR sky130_fd_sc_hd__decap_3
Xoutput39 net39 VGND VGND VPWR VPWR done_dec[4] sky130_fd_sc_hd__buf_2
XTAP_TAPCELL_ROW_26_123 VGND VPWR sky130_fd_sc_hd__tapvpwrvgnd_1
X_621_ _281_ _303_ _305_ net80 VGND VGND VPWR VPWR _032_ sky130_fd_sc_hd__a22o_1
XTAP_TAPCELL_ROW_23_115 VGND VPWR sky130_fd_sc_hd__tapvpwrvgnd_1
X_552_ net72 _245_ VGND VGND VPWR VPWR _249_ sky130_fd_sc_hd__nand2b_1
X_483_ _185_ _188_ net32 _158_ VGND VGND VPWR VPWR _011_ sky130_fd_sc_hd__o2bb2a_1
XTAP_TAPCELL_ROW_20_107 VGND VPWR sky130_fd_sc_hd__tapvpwrvgnd_1
XTAP_TAPCELL_ROW_3_64 VGND VPWR sky130_fd_sc_hd__tapvpwrvgnd_1
X_604_ _291_ VGND VGND VPWR VPWR _292_ sky130_fd_sc_hd__inv_2
X_397_ net25 _035_ VGND VGND VPWR VPWR _110_ sky130_fd_sc_hd__nor2_2
X_466_ net1 net2 VGND VGND VPWR VPWR _173_ sky130_fd_sc_hd__xor2_1
Xclkbuf_2_0__f_clk clknet_0_clk VGND VGND VPWR VPWR clknet_2_0__leaf_clk sky130_fd_sc_hd__clkbuf_16
X_535_ _207_ _231_ _234_ VGND VGND VPWR VPWR _235_ sky130_fd_sc_hd__o21a_1
XFILLER_4_97 VGND VGND VPWR VPWR sky130_fd_sc_hd__fill_1
X_320_ net63 net64 net65 VGND VGND VPWR VPWR _046_ sky130_fd_sc_hd__and3_1
XTAP_TAPCELL_ROW_0_54 VGND VPWR sky130_fd_sc_hd__tapvpwrvgnd_1
Xfanout74 net58 VGND VGND VPWR VPWR net74 sky130_fd_sc_hd__clkbuf_2
XFILLER_18_29 VPWR VGND VPWR VGND sky130_ef_sc_hd__decap_12
X_449_ _033_ net9 VGND VGND VPWR VPWR _157_ sky130_fd_sc_hd__nor2_1
X_518_ _207_ _220_ _216_ VGND VGND VPWR VPWR _221_ sky130_fd_sc_hd__a21o_1
XFILLER_24_50 VGND VGND VPWR VPWR sky130_fd_sc_hd__fill_2
XFILLER_10_85 VGND VGND VPWR VPWR sky130_fd_sc_hd__decap_8
XFILLER_25_3 VPWR VGND VPWR VGND sky130_ef_sc_hd__decap_12
XTAP_TAPCELL_ROW_26_124 VGND VPWR sky130_fd_sc_hd__tapvpwrvgnd_1
XFILLER_26_29 VPWR VGND VPWR VGND sky130_ef_sc_hd__decap_12
X_620_ _280_ _290_ _304_ VGND VGND VPWR VPWR _305_ sky130_fd_sc_hd__or3_1
X_551_ _220_ _247_ VGND VGND VPWR VPWR _248_ sky130_fd_sc_hd__nand2_1
XPHY_EDGE_ROW_5_Right_5 VGND VGND VPWR VPWR sky130_fd_sc_hd__decap_3