*SPEF "ieee 1481-1999"
*DESIGN "alarm"
*DATE "19:22:29 Friday January 16, 2026"
*VENDOR "The OpenROAD Project"
*PROGRAM "OpenROAD"
*VERSION "edf00dff99f6c40d67a30c0e22a8191c5d2ed9d6"
*DESIGN_FLOW "NAME_SCOPE LOCAL" "PIN_CAP NONE"
*DIVIDER /
*DELIMITER :
*BUS_DELIMITER []
*T_UNIT 1 NS
*C_UNIT 1 PF
*R_UNIT 1 OHM
*L_UNIT 1 HENRY

*NAME_MAP
*3 alarm_hour[0]
*4 alarm_hour[1]
*5 alarm_hour[2]
*6 alarm_hour[3]
*7 alarm_hour[4]
*8 alarm_i
*9 alarm_min[0]
*10 alarm_min[1]
*11 alarm_min[2]
*12 alarm_min[3]
*13 alarm_min[4]
*14 alarm_min[5]
*15 alarm_o
*16 clk
*17 hour[0]
*18 hour[1]
*19 hour[2]
*20 hour[3]
*21 hour[4]
*22 minute[0]
*23 minute[1]
*24 minute[2]
*25 minute[3]
*26 minute[4]
*27 minute[5]
*28 rst_n
*29 _00_
*30 _01_
*31 _02_
*32 _03_
*33 _04_
*34 _05_
*35 _06_
*36 _07_
*37 _08_
*38 _09_
*39 _10_
*40 _11_
*41 _12_
*42 _13_
*43 _14_
*44 _15_
*45 _16_
*46 _17_
*47 _18_
*48 clknet_0_clk
*49 clknet_1_0__leaf_clk
*50 clknet_1_1__leaf_clk
*51 net1
*52 net10
*53 net11
*54 net12
*55 net13
*56 net14
*57 net15
*58 net16
*59 net17
*60 net18
*61 net19
*62 net2
*63 net20
*64 net21
*65 net22
*66 net23
*67 net24
*68 net25
*69 net26
*70 net27
*71 net3
*72 net4
*73 net5
*74 net6
*75 net7
*76 net8
*77 net9
*78 state_alarm
*79 FILLER_0_3
*80 FILLER_0_49
*81 FILLER_0_55
*82 FILLER_0_80
*83 FILLER_1_17
*84 FILLER_1_25
*85 FILLER_1_46
*86 FILLER_1_54
*87 FILLER_1_57
*88 FILLER_1_69
*89 FILLER_2_10
*90 FILLER_2_14
*91 FILLER_2_26
*92 FILLER_2_37
*93 FILLER_2_45
*94 FILLER_2_67
*95 FILLER_2_79
*96 FILLER_3_19
*97 FILLER_3_31
*98 FILLER_3_43
*99 FILLER_3_55
*100 FILLER_3_57
*101 FILLER_3_69
*102 FILLER_3_77
*103 FILLER_3_9
*104 FILLER_4_27
*105 FILLER_4_29
*106 FILLER_4_57
*107 FILLER_4_69
*108 FILLER_4_77
*109 FILLER_5_15
*110 FILLER_5_25
*111 FILLER_5_37
*112 FILLER_5_49
*113 FILLER_5_55
*114 FILLER_5_57
*115 FILLER_5_6
*116 FILLER_5_69
*117 FILLER_5_77
*118 FILLER_6_19
*119 FILLER_6_27
*120 FILLER_6_29
*121 FILLER_6_41
*122 FILLER_6_53
*123 FILLER_6_65
*124 FILLER_6_77
*125 FILLER_6_9
*126 FILLER_7_10
*127 FILLER_7_22
*128 FILLER_7_34
*129 FILLER_7_46
*130 FILLER_7_54
*131 FILLER_7_57
*132 FILLER_7_69
*133 FILLER_8_12
*134 FILLER_8_20
*135 FILLER_8_29
*136 FILLER_8_41
*137 FILLER_8_53
*138 FILLER_8_65
*139 FILLER_8_73
*140 FILLER_9_20
*141 FILLER_9_29
*142 FILLER_9_41
*143 FILLER_9_53
*144 FILLER_9_57
*145 FILLER_9_69
*146 PHY_EDGE_ROW_0_Left_10
*147 PHY_EDGE_ROW_0_Right_0
*148 PHY_EDGE_ROW_1_Left_11
*149 PHY_EDGE_ROW_1_Right_1
*150 PHY_EDGE_ROW_2_Left_12
*151 PHY_EDGE_ROW_2_Right_2
*152 PHY_EDGE_ROW_3_Left_13
*153 PHY_EDGE_ROW_3_Right_3
*154 PHY_EDGE_ROW_4_Left_14
*155 PHY_EDGE_ROW_4_Right_4
*156 PHY_EDGE_ROW_5_Left_15
*157 PHY_EDGE_ROW_5_Right_5
*158 PHY_EDGE_ROW_6_Left_16
*159 PHY_EDGE_ROW_6_Right_6
*160 PHY_EDGE_ROW_7_Left_17
*161 PHY_EDGE_ROW_7_Right_7
*162 PHY_EDGE_ROW_8_Left_18
*163 PHY_EDGE_ROW_8_Right_8
*164 PHY_EDGE_ROW_9_Left_19
*165 PHY_EDGE_ROW_9_Right_9
*166 TAP_TAPCELL_ROW_0_20
*167 TAP_TAPCELL_ROW_0_21
*168 TAP_TAPCELL_ROW_1_22
*169 TAP_TAPCELL_ROW_2_23
*170 TAP_TAPCELL_ROW_3_24
*171 TAP_TAPCELL_ROW_4_25
*172 TAP_TAPCELL_ROW_5_26
*173 TAP_TAPCELL_ROW_6_27
*174 TAP_TAPCELL_ROW_7_28
*175 TAP_TAPCELL_ROW_8_29
*176 TAP_TAPCELL_ROW_9_30
*177 TAP_TAPCELL_ROW_9_31
*178 _19_
*179 _20_
*180 _21_
*181 _22_
*182 _23_
*183 _24_
*184 _25_
*185 _26_
*186 _27_
*187 _28_
*188 _29_
*189 _30_
*190 _31_
*191 _32_
*192 _33_
*193 _34_
*194 _35_
*195 _36_
*196 _37_
*197 _38_
*198 _39_
*199 clkbuf_0_clk
*200 clkbuf_1_0__f_clk
*201 clkbuf_1_1__f_clk
*202 hold1
*203 hold2
*204 input1
*205 input10
*206 input11
*207 input12
*208 input13
*209 input14
*210 input15
*211 input16
*212 input17
*213 input18
*214 input19
*215 input2
*216 input20
*217 input21
*218 input22
*219 input23
*220 input24
*221 input3
*222 input4
*223 input5
*224 input6
*225 input7
*226 input8
*227 input9
*228 output25

*PORTS
alarm_hour[0] I
alarm_hour[1] I
alarm_hour[2] I
alarm_hour[3] I
alarm_hour[4] I
alarm_i I
alarm_min[0] I
alarm_min[1] I
alarm_min[2] I
alarm_min[3] I
alarm_min[4] I
alarm_min[5] I
alarm_o O
clk I
hour[0] I
hour[1] I
hour[2] I
hour[3] I
hour[4] I
minute[0] I
minute[1] I
minute[2] I
minute[3] I
minute[4] I
minute[5] I
rst_n I

*D_NET *3 0.000862037
*CONN
*P alarm_hour[0] I
*I *204:A I *D sky130_fd_sc_hd__clkbuf_1
*CAP
1 alarm_hour[0] 0.000290438
2 *204:A 0.000290438
3 *204:A *179:B 1.52013e-05
4 *204:A *207:A 1.75931e-05
5 *204:A *215:A 0.000248367
*RES
1 alarm_hour[0] *204:A 21.6018 
*END

*D_NET *4 0.000896228
*CONN
*P alarm_hour[1] I
*I *215:A I *D sky130_fd_sc_hd__clkbuf_1
*CAP
1 alarm_hour[1] 0.000315134
2 *215:A 0.000315134
3 *215:A *207:A 0
4 *215:A *221:A 1.75931e-05
5 *204:A *215:A 0.000248367
*RES
1 alarm_hour[1] *215:A 23.0119 
*END

*D_NET *5 0.00128964
*CONN
*P alarm_hour[2] I
*I *221:A I *D sky130_fd_sc_hd__clkbuf_1
*CAP
1 alarm_hour[2] 0.000364298
2 *221:A 0.000364298
3 *221:A *188:B 3.4963e-05
4 *221:A *222:A 2.7452e-05
5 *221:A *223:A 0.000278866
6 *221:A *224:A 0.000145473
7 *221:A *74:16 5.66971e-05
8 *215:A *221:A 1.75931e-05
*RES
1 alarm_hour[2] *221:A 23.7096 
*END

*D_NET *6 0.000712545
*CONN
*P alarm_hour[3] I
*I *222:A I *D sky130_fd_sc_hd__clkbuf_1
*CAP
1 alarm_hour[3] 0.000270857
2 *222:A 0.000270857
3 *222:A *223:A 0.00014338
4 *221:A *222:A 2.7452e-05
*RES
1 alarm_hour[3] *222:A 21.494 
*END

*D_NET *7 0.00162913
*CONN
*P alarm_hour[4] I
*I *223:A I *D sky130_fd_sc_hd__clkbuf_1
*CAP
1 alarm_hour[4] 0.00038645
2 *223:A 0.00038645
3 *223:A *224:A 0.000433983
4 *221:A *223:A 0.000278866
5 *222:A *223:A 0.00014338
*RES
1 alarm_hour[4] *223:A 26.9232 
*END

*D_NET *8 0.0019403
*CONN
*P alarm_i I
*I *224:A I *D sky130_fd_sc_hd__buf_1
*CAP
1 alarm_i 0.00066449
2 *224:A 0.00066449
3 *224:A *188:B 3.18676e-05
4 *224:A *191:B 0
5 *221:A *224:A 0.000145473
6 *223:A *224:A 0.000433983
*RES
1 alarm_i *224:A 30.6388 
*END

*D_NET *9 0.00160733
*CONN
*P alarm_min[0] I
*I *225:A I *D sky130_fd_sc_hd__clkbuf_1
*CAP
1 alarm_min[0] 0.000612019
2 *225:A 0.000612019
3 *225:A alarm_o 1.94912e-05
4 *225:A *226:A 6.31912e-05
5 *225:A *60:20 0.000300607
*RES
1 alarm_min[0] *225:A 26.8001 
*END

*D_NET *10 0.002181
*CONN
*P alarm_min[1] I
*I *226:A I *D sky130_fd_sc_hd__clkbuf_1
*CAP
1 alarm_min[1] 0.000905478
2 *226:A 0.000905478
3 *226:A *186:B 0.000129868
4 *226:A *189:A 5.90416e-05
5 *226:A *192:B 5.26091e-05
6 *226:A *196:B1 0
7 *226:A *227:A 6.53314e-05
8 *225:A *226:A 6.31912e-05
*RES
1 alarm_min[1] *226:A 24.3078 
*END

*D_NET *11 0.00143138
*CONN
*P alarm_min[2] I
*I *227:A I *D sky130_fd_sc_hd__clkbuf_1
*CAP
1 alarm_min[2] 0.000557934
2 *227:A 0.000557934
3 *227:A alarm_o 3.05446e-05
4 *227:A *192:A 6.78942e-05
5 *227:A *192:B 0
6 *227:A *194:C 7.48091e-05
7 *227:A *205:A 3.71658e-05
8 *227:A *228:A 3.97657e-05
9 *226:A *227:A 6.53314e-05
*RES
1 alarm_min[2] *227:A 24.9615 
*END

*D_NET *12 0.00102364
*CONN
*P alarm_min[3] I
*I *205:A I *D sky130_fd_sc_hd__clkbuf_1
*CAP
1 alarm_min[3] 0.000306659
2 *205:A 0.000306659
3 *205:A *180:B 5.23057e-05
4 *205:A *181:B 5.7661e-06
5 *205:A *193:B 5.71472e-05
6 *205:A *206:A 0.000257934
7 *227:A *205:A 3.71658e-05
*RES
1 alarm_min[3] *205:A 23.4232 
*END

*D_NET *13 0.000687815
*CONN
*P alarm_min[4] I
*I *206:A I *D sky130_fd_sc_hd__clkbuf_1
*CAP
1 alarm_min[4] 0.000198786
2 *206:A 0.000198786
3 *206:A *180:B 7.43578e-06
4 *206:A *207:A 2.48723e-05
5 *205:A *206:A 0.000257934
*RES
1 alarm_min[4] *206:A 20.8869 
*END

*D_NET *14 0.000576072
*CONN
*P alarm_min[5] I
*I *207:A I *D sky130_fd_sc_hd__clkbuf_1
*CAP
1 alarm_min[5] 0.000266803
2 *207:A 0.000266803
3 *204:A *207:A 1.75931e-05
4 *206:A *207:A 2.48723e-05
5 *215:A *207:A 0
*RES
1 alarm_min[5] *207:A 21.1905 
*END

*D_NET *15 0.0014945
*CONN
*P alarm_o O
*I *228:X O *D sky130_fd_sc_hd__buf_2
*CAP
1 alarm_o 0.000722233
2 *228:X 0.000722233
3 *225:A alarm_o 1.94912e-05
4 *227:A alarm_o 3.05446e-05
*RES
1 *228:X alarm_o 29.1905 
*END

*D_NET *16 0.00268171
*CONN
*P clk I
*I *199:A I *D sky130_fd_sc_hd__clkbuf_16
*CAP
1 clk 0.0010188
2 *199:A 0.0010188
3 *199:A *213:A 0
4 *199:A *214:A 2.30314e-05
5 *199:A *220:A 0.000384341
6 *199:A *60:20 2.56694e-05
7 *199:A *63:12 0.000211066
*RES
1 clk *199:A 34.5527 
*END

*D_NET *17 0.000888966
*CONN
*P hour[0] I
*I *208:A I *D sky130_fd_sc_hd__buf_1
*CAP
1 hour[0] 0.000324981
2 *208:A 0.000324981
3 *208:A *209:A 6.45454e-05
4 *208:A *219:A 6.08726e-05
5 *208:A *56:10 0.000113585
*RES
1 hour[0] *208:A 20.1605 
*END

*D_NET *18 0.000553148
*CONN
*P hour[1] I
*I *209:A I *D sky130_fd_sc_hd__buf_1
*CAP
1 hour[1] 0.000183673
2 *209:A 0.000183673
3 *209:A *210:A 8.31618e-05
4 *209:A *57:16 3.80952e-05
5 *208:A *209:A 6.45454e-05
*RES
1 hour[1] *209:A 19.0336 
*END

*D_NET *19 0.000599741
*CONN
*P hour[2] I
*I *210:A I *D sky130_fd_sc_hd__buf_1
*CAP
1 hour[2] 0.000198843
2 *210:A 0.000198843
3 *210:A *211:A 0.000118893
4 *209:A *210:A 8.31618e-05
*RES
1 hour[2] *210:A 19.3371 
*END

*D_NET *20 0.00108307
*CONN
*P hour[3] I
*I *211:A I *D sky130_fd_sc_hd__buf_1
*CAP
1 hour[3] 0.000373959
2 *211:A 0.000373959
3 *211:A *212:A 0.000216254
4 *210:A *211:A 0.000118893
*RES
1 hour[3] *211:A 22.5891 
*END

*D_NET *21 0.00151885
*CONN
*P hour[4] I
*I *212:A I *D sky130_fd_sc_hd__buf_1
*CAP
1 hour[4] 0.000651298
2 *212:A 0.000651298
3 *211:A *212:A 0.000216254
*RES
1 hour[4] *212:A 25.841 
*END

*D_NET *22 0.00106601
*CONN
*P minute[0] I
*I *213:A I *D sky130_fd_sc_hd__buf_1
*CAP
1 minute[0] 0.000447962
2 *213:A 0.000447962
3 *213:A *192:A 5.52238e-05
4 *213:A *214:A 5.82736e-05
5 *213:A *220:A 5.65933e-05
6 *199:A *213:A 0
*RES
1 minute[0] *213:A 23.9602 
*END

*D_NET *23 0.000544043
*CONN
*P minute[1] I
*I *214:A I *D sky130_fd_sc_hd__buf_1
*CAP
1 minute[1] 0.000191346
2 *214:A 0.000191346
3 *214:A *216:A 8.00458e-05
4 *214:A *220:A 0
5 *199:A *214:A 2.30314e-05
6 *213:A *214:A 5.82736e-05
*RES
1 minute[1] *214:A 18.4264 
*END

*D_NET *24 0.000696406
*CONN
*P minute[2] I
*I *216:A I *D sky130_fd_sc_hd__buf_1
*CAP
1 minute[2] 0.000238614
2 *216:A 0.000238614
3 *216:A *217:A 8.57347e-05
4 *216:A *63:12 5.33978e-05
5 *214:A *216:A 8.00458e-05
*RES
1 minute[2] *216:A 20.2479 
*END

*D_NET *25 0.000570982
*CONN
*P minute[3] I
*I *217:A I *D sky130_fd_sc_hd__clkbuf_1
*CAP
1 minute[3] 0.000199756
2 *217:A 0.000199756
3 *217:A *218:A 8.57347e-05
4 *216:A *217:A 8.57347e-05
*RES
1 minute[3] *217:A 19.3371 
*END

*D_NET *26 0.000551175
*CONN
*P minute[4] I
*I *218:A I *D sky130_fd_sc_hd__buf_1
*CAP
1 minute[4] 0.000199983
2 *218:A 0.000199983
3 *218:A *219:A 5.38538e-05
4 *218:A *65:14 1.16198e-05
5 *217:A *218:A 8.57347e-05
*RES
1 minute[4] *218:A 19.0336 
*END

*D_NET *27 0.000474701
*CONN
*P minute[5] I
*I *219:A I *D sky130_fd_sc_hd__buf_1
*CAP
1 minute[5] 0.000179987
2 *219:A 0.000179987
3 *208:A *219:A 6.08726e-05
4 *218:A *219:A 5.38538e-05
*RES
1 minute[5] *219:A 18.1229 
*END

*D_NET *28 0.00103411
*CONN
*P rst_n I
*I *220:A I *D sky130_fd_sc_hd__buf_1
*CAP
1 rst_n 0.000296587
2 *220:A 0.000296587
3 *199:A *220:A 0.000384341
4 *213:A *220:A 5.65933e-05
5 *214:A *220:A 0
*RES
1 rst_n *220:A 21.8378 
*END

*D_NET *29 0.00118994
*CONN
*I *197:D I *D sky130_fd_sc_hd__dfrtp_1
*I *178:X O *D sky130_fd_sc_hd__xor2_1
*CAP
1 *197:D 0.000247254
2 *178:X 0.000247254
3 *197:D *192:A 0.00057444
4 *197:D *197:RESET_B 0.000120995
*RES
1 *178:X *197:D 26.1179 
*END

*D_NET *30 0.00223845
*CONN
*I *198:D I *D sky130_fd_sc_hd__dfrtp_1
*I *196:X O *D sky130_fd_sc_hd__o21a_1
*CAP
1 *198:D 0.000408702
2 *196:X 0.000408702
3 *198:D *196:A1 5.71472e-05
4 *198:D *196:B1 9.90367e-05
5 *198:D *198:RESET_B 4.84658e-05
6 *198:D *60:20 0.00114066
7 *198:D *67:10 7.57394e-05
*RES
1 *196:X *198:D 31.4571 
*END

*D_NET *31 0.000994033
*CONN
*I *184:C1 I *D sky130_fd_sc_hd__a221o_1
*I *179:X O *D sky130_fd_sc_hd__xor2_1
*CAP
1 *184:C1 0.000429676
2 *179:X 0.000429676
3 *184:C1 *179:A 1.84865e-05
4 *184:C1 *179:B 3.75959e-05
5 *184:C1 *184:B2 7.85994e-05
*RES
1 *179:X *184:C1 34.9393 
*END

*D_NET *32 0.000434327
*CONN
*I *184:A1 I *D sky130_fd_sc_hd__a221o_1
*I *180:X O *D sky130_fd_sc_hd__or2_1
*CAP
1 *184:A1 0.000175395
2 *180:X 0.000175395
3 *184:A1 *180:A 4.37999e-05
4 *184:A1 *184:B1 2.27416e-05
5 *184:A1 *184:B2 1.69961e-05
*RES
1 *180:X *184:A1 21.2071 
*END

*D_NET *33 0.00058754
*CONN
*I *184:A2 I *D sky130_fd_sc_hd__a221o_1
*I *181:Y O *D sky130_fd_sc_hd__nand2_1
*CAP
1 *184:A2 0.000127378
2 *181:Y 0.000127378
3 *184:A2 *180:A 1.59935e-05
4 *184:A2 *181:A 6.2198e-05
5 *184:A2 *189:C 0.000126439
6 *184:A2 *189:D 0.000128154
*RES
1 *181:Y *184:A2 30.5196 
*END

*D_NET *34 0.00056137
*CONN
*I *184:B1 I *D sky130_fd_sc_hd__a221o_1
*I *182:Y O *D sky130_fd_sc_hd__nand2_1
*CAP
1 *184:B1 0.000136088
2 *182:Y 0.000136088
3 *184:B1 *180:A 5.52238e-05
4 *184:B1 *183:A 2.59355e-05
5 *184:B1 *184:B2 6.23503e-05
6 *184:B1 *189:D 0.000122942
7 *184:A1 *184:B1 2.27416e-05
*RES
1 *182:Y *184:B1 30.7429 
*END

*D_NET *35 0.000448734
*CONN
*I *184:B2 I *D sky130_fd_sc_hd__a221o_1
*I *183:X O *D sky130_fd_sc_hd__or2_1
*CAP
1 *184:B2 0.00012021
2 *183:X 0.00012021
3 *184:B2 *180:A 1.403e-05
4 *184:B2 *183:A 2.85321e-05
5 *184:B2 *189:D 7.80714e-06
6 *184:A1 *184:B2 1.69961e-05
7 *184:B1 *184:B2 6.23503e-05
8 *184:C1 *184:B2 7.85994e-05
*RES
1 *183:X *184:B2 30.3679 
*END

*D_NET *36 0.000711907
*CONN
*I *195:A I *D sky130_fd_sc_hd__nor3_1
*I *184:X O *D sky130_fd_sc_hd__a221o_1
*CAP
1 *195:A 0.000313268
2 *184:X 0.000313268
3 *195:A *180:A 2.40379e-05
4 *195:A *64:6 9.01775e-06
5 *195:A *65:14 5.23142e-05
*RES
1 *184:X *195:A 22.4393 
*END

*D_NET *37 0.00157919
*CONN
*I *189:A I *D sky130_fd_sc_hd__or4_1
*I *185:X O *D sky130_fd_sc_hd__xor2_1
*CAP
1 *189:A 0.000463638
2 *185:X 0.000463638
3 *189:A *185:B 5.71472e-05
4 *189:A *186:B 8.15939e-05
5 *189:A *189:B 2.56694e-05
6 *189:A *189:C 1.02504e-05
7 *189:A *194:C 0.000220439
8 *189:A *60:20 0.000197772
9 *226:A *189:A 5.90416e-05
*RES
1 *185:X *189:A 36.9929 
*END

*D_NET *38 0.000560663
*CONN
*I *189:B I *D sky130_fd_sc_hd__or4_1
*I *186:X O *D sky130_fd_sc_hd__xor2_1
*CAP
1 *189:B 0.000173204
2 *186:X 0.000173204
3 *189:B *63:12 0.000188586
4 *189:A *189:B 2.56694e-05
*RES
1 *186:X *189:B 30.4036 
*END

*D_NET *39 0.00240514
*CONN
*I *189:C I *D sky130_fd_sc_hd__or4_1
*I *187:X O *D sky130_fd_sc_hd__xor2_1
*CAP
1 *189:C 0.000603561
2 *187:X 0.000603561
3 *189:C *181:A 0.000111396
4 *189:C *187:A 5.41494e-05
5 *189:C *188:B 0.000101545
6 *189:C *189:D 0.000296965
7 *189:C *194:B 0
8 *189:C *194:C 4.97121e-06
9 *189:C *194:D 0.00015244
10 *189:C *55:12 0.000339867
11 *184:A2 *189:C 0.000126439
12 *189:A *189:C 1.02504e-05
*RES
1 *187:X *189:C 43.0464 
*END

*D_NET *40 0.00210442
*CONN
*I *189:D I *D sky130_fd_sc_hd__or4_1
*I *188:X O *D sky130_fd_sc_hd__xor2_1
*CAP
1 *189:D 0.000605539
2 *188:X 0.000605539
3 *189:D *180:B 0
4 *189:D *55:12 0.00033747
5 *184:A2 *189:D 0.000128154
6 *184:B1 *189:D 0.000122942
7 *184:B2 *189:D 7.80714e-06
8 *189:C *189:D 0.000296965
*RES
1 *188:X *189:D 41.0821 
*END

*D_NET *41 0.000834354
*CONN
*I *195:B I *D sky130_fd_sc_hd__nor3_1
*I *189:X O *D sky130_fd_sc_hd__or4_1
*CAP
1 *195:B 0.000368344
2 *189:X 0.000368344
3 *195:B *193:B 1.07719e-05
4 *195:B *195:C 1.02504e-05
5 *195:B *196:A2 7.6644e-05
6 *195:B *74:16 0
*RES
1 *189:X *195:B 32.2429 
*END

*D_NET *42 0.000650602
*CONN
*I *194:A I *D sky130_fd_sc_hd__or4_1
*I *190:X O *D sky130_fd_sc_hd__xor2_1
*CAP
1 *194:A 0.000226612
2 *190:X 0.000226612
3 *194:A *74:16 0.000197378
*RES
1 *190:X *194:A 31.9214 
*END

*D_NET *43 0.00109326
*CONN
*I *194:B I *D sky130_fd_sc_hd__or4_1
*I *191:X O *D sky130_fd_sc_hd__xor2_1
*CAP
1 *194:B 0.000363036
2 *191:X 0.000363036
3 *194:B *194:C 5.74242e-05
4 *194:B *194:D 6.93626e-06
5 *194:B *74:16 0.00030283
6 *189:C *194:B 0
*RES
1 *191:X *194:B 35.9214 
*END

*D_NET *44 0.00214448
*CONN
*I *194:C I *D sky130_fd_sc_hd__or4_1
*I *192:X O *D sky130_fd_sc_hd__xor2_1
*CAP
1 *194:C 0.000381096
2 *192:X 0.000381096
3 *194:C *181:A 0.000221013
4 *194:C *192:A 0.000227539
5 *194:C *193:B 0.000247771
6 *194:C *194:D 0.000114434
7 *194:C *196:B1 1.76135e-05
8 *194:C *66:14 2.24804e-05
9 *194:C *69:10 6.39901e-05
10 *194:C *74:16 0.000109807
11 *189:A *194:C 0.000220439
12 *189:C *194:C 4.97121e-06
13 *194:B *194:C 5.74242e-05
14 *227:A *194:C 7.48091e-05
*RES
1 *192:X *194:C 40.5643 
*END

*D_NET *45 0.000617949
*CONN
*I *194:D I *D sky130_fd_sc_hd__or4_1
*I *193:X O *D sky130_fd_sc_hd__xor2_1
*CAP
1 *194:D 9.69038e-05
2 *193:X 9.69038e-05
3 *194:D *181:A 1.00887e-05
4 *194:D *66:14 0.000140243
5 *189:C *194:D 0.00015244
6 *194:B *194:D 6.93626e-06
7 *194:C *194:D 0.000114434
*RES
1 *193:X *194:D 30.9036 
*END

*D_NET *46 0.00042305
*CONN
*I *195:C I *D sky130_fd_sc_hd__nor3_1
*I *194:X O *D sky130_fd_sc_hd__or4_1
*CAP
1 *195:C 0.000194078
2 *194:X 0.000194078
3 *195:C *66:14 2.46444e-05
4 *195:C *74:16 0
5 *195:B *195:C 1.02504e-05
*RES
1 *194:X *195:C 30.4929 
*END

*D_NET *47 0.00192381
*CONN
*I *196:A2 I *D sky130_fd_sc_hd__o21a_1
*I *195:Y O *D sky130_fd_sc_hd__nor3_1
*CAP
1 *196:A2 0.000623352
2 *195:Y 0.000623352
3 *196:A2 *196:B1 0
4 *196:A2 *202:A 6.65302e-05
5 *196:A2 *203:A 4.46186e-06
6 *196:A2 *228:A 3.25078e-05
7 *196:A2 *60:20 0.000271352
8 *196:A2 *65:14 3.14163e-05
9 *196:A2 *74:16 0.000194191
10 *195:B *196:A2 7.6644e-05
*RES
1 *195:Y *196:A2 39.4571 
*END

*D_NET *48 0.001607
*CONN
*I *201:A I *D sky130_fd_sc_hd__clkbuf_16
*I *200:A I *D sky130_fd_sc_hd__clkbuf_16
*I *199:X O *D sky130_fd_sc_hd__clkbuf_16
*CAP
1 *201:A 0.000330807
2 *200:A 0.000263684
3 *199:X 0.000161034
4 *48:8 0.000755525
5 *201:A *65:14 2.89016e-05
6 *48:8 *63:12 6.70515e-05
*RES
1 *199:X *48:8 15.9786 
2 *48:8 *200:A 18.175 
3 *48:8 *201:A 19.6214 
*END

*D_NET *49 0.00159596
*CONN
*I *198:CLK I *D sky130_fd_sc_hd__dfrtp_1
*I *200:X O *D sky130_fd_sc_hd__clkbuf_16
*CAP
1 *198:CLK 0.000193063
2 *200:X 0.000193063
3 *198:CLK *60:20 0.000735467
4 *198:CLK *67:10 0.000474367
*RES
1 *200:X *198:CLK 28.725 
*END

*D_NET *50 0.00101768
*CONN
*I *197:CLK I *D sky130_fd_sc_hd__dfrtp_1
*I *201:X O *D sky130_fd_sc_hd__clkbuf_16
*CAP
1 *197:CLK 0.00048009
2 *201:X 0.00048009
3 *197:CLK *197:RESET_B 1.00399e-05
4 *197:CLK *65:14 4.74593e-05
*RES
1 *201:X *197:CLK 35.4571 
*END

*D_NET *51 0.0003413
*CONN
*I *190:B I *D sky130_fd_sc_hd__xor2_1
*I *204:X O *D sky130_fd_sc_hd__clkbuf_1
*CAP
1 *190:B 0.00017065
2 *204:X 0.00017065
*RES
1 *204:X *190:B 21.2071 
*END

*D_NET *52 0.000755665
*CONN
*I *181:B I *D sky130_fd_sc_hd__nand2_1
*I *180:B I *D sky130_fd_sc_hd__or2_1
*I *205:X O *D sky130_fd_sc_hd__clkbuf_1
*CAP
1 *181:B 7.11377e-05
2 *180:B 0.000234553
3 *205:X 0
4 *52:4 0.000305691
5 *180:B *193:B 2.24763e-05
6 *181:B *181:A 0
7 *181:B *193:B 5.62995e-05
8 *189:D *180:B 0
9 *205:A *180:B 5.23057e-05
10 *205:A *181:B 5.7661e-06
11 *206:A *180:B 7.43578e-06
*RES
1 *205:X *52:4 9.3 
2 *52:4 *180:B 21.8179 
3 *52:4 *181:B 10.9786 
*END

*D_NET *53 0.00143483
*CONN
*I *193:B I *D sky130_fd_sc_hd__xor2_1
*I *206:X O *D sky130_fd_sc_hd__clkbuf_1
*CAP
1 *193:B 0.000402787
2 *206:X 0.000402787
3 *193:B *181:A 0.000103307
4 *193:B *74:16 0.000131481
5 *180:B *193:B 2.24763e-05
6 *181:B *193:B 5.62995e-05
7 *194:C *193:B 0.000247771
8 *195:B *193:B 1.07719e-05
9 *205:A *193:B 5.71472e-05
*RES
1 *206:X *193:B 36.6357 
*END

*D_NET *54 0.000558138
*CONN
*I *182:B I *D sky130_fd_sc_hd__nand2_1
*I *183:B I *D sky130_fd_sc_hd__or2_1
*I *207:X O *D sky130_fd_sc_hd__clkbuf_1
*CAP
1 *182:B 0.000132091
2 *183:B 0
3 *207:X 9.64601e-05
4 *54:8 0.000228551
5 *182:B *183:A 8.77675e-05
6 *182:B *66:14 1.32693e-05
*RES
1 *207:X *54:8 10.675 
2 *54:8 *183:B 9.3 
3 *54:8 *182:B 11.9071 
*END

*D_NET *55 0.00588424
*CONN
*I *190:A I *D sky130_fd_sc_hd__xor2_1
*I *208:X O *D sky130_fd_sc_hd__buf_1
*CAP
1 *190:A 0
2 *208:X 0.0018563
3 *55:12 0.0018563
4 *55:12 *57:16 0.0011854
5 *55:12 *74:16 0.000308913
6 *189:C *55:12 0.000339867
7 *189:D *55:12 0.00033747
*RES
1 *208:X *55:12 47.8536 
2 *55:12 *190:A 9.3 
*END

*D_NET *56 0.00392863
*CONN
*I *179:A I *D sky130_fd_sc_hd__xor2_1
*I *209:X O *D sky130_fd_sc_hd__buf_1
*CAP
1 *179:A 0.00182199
2 *209:X 7.62887e-05
3 *56:10 0.00189828
4 *184:C1 *179:A 1.84865e-05
5 *208:A *56:10 0.000113585
*RES
1 *209:X *56:10 19.9429 
2 *56:10 *179:A 39.4071 
*END

*D_NET *57 0.00377338
*CONN
*I *191:A I *D sky130_fd_sc_hd__xor2_1
*I *210:X O *D sky130_fd_sc_hd__buf_1
*CAP
1 *191:A 0
2 *210:X 0.00113168
3 *57:16 0.00113168
4 *57:16 *188:B 1.84865e-05
5 *57:16 *74:16 0.000268049
6 *209:A *57:16 3.80952e-05
7 *55:12 *57:16 0.0011854
*RES
1 *210:X *57:16 46.4964 
2 *57:16 *191:A 9.3 
*END

*D_NET *58 0.00517772
*CONN
*I *187:A I *D sky130_fd_sc_hd__xor2_1
*I *211:X O *D sky130_fd_sc_hd__buf_1
*CAP
1 *187:A 0.00149795
2 *211:X 0.00149795
3 *187:A *188:A 0.00212767
4 *189:C *187:A 5.41494e-05
*RES
1 *211:X *187:A 47.225 
*END

*D_NET *59 0.00388811
*CONN
*I *188:A I *D sky130_fd_sc_hd__xor2_1
*I *212:X O *D sky130_fd_sc_hd__buf_1
*CAP
1 *188:A 0.000880218
2 *212:X 0.000880218
3 *187:A *188:A 0.00212767
*RES
1 *212:X *188:A 42.1714 
*END

*D_NET *60 0.00617492
*CONN
*I *185:A I *D sky130_fd_sc_hd__xor2_1
*I *213:X O *D sky130_fd_sc_hd__buf_1
*CAP
1 *185:A 0
2 *213:X 0.00159975
3 *60:20 0.00159975
4 *60:20 *185:B 0.000105163
5 *60:20 *67:10 5.58798e-05
6 *60:20 *68:8 0.000142856
7 *189:A *60:20 0.000197772
8 *196:A2 *60:20 0.000271352
9 *198:CLK *60:20 0.000735467
10 *198:D *60:20 0.00114066
11 *199:A *60:20 2.56694e-05
12 *225:A *60:20 0.000300607
*RES
1 *213:X *60:20 49.2107 
2 *60:20 *185:A 9.3 
*END

*D_NET *61 0.00532512
*CONN
*I *192:A I *D sky130_fd_sc_hd__xor2_1
*I *214:X O *D sky130_fd_sc_hd__buf_1
*CAP
1 *192:A 0.00181608
2 *214:X 0.00181608
3 *192:A *228:A 0.000767864
4 *194:C *192:A 0.000227539
5 *197:D *192:A 0.00057444
6 *213:A *192:A 5.52238e-05
7 *227:A *192:A 6.78942e-05
*RES
1 *214:X *192:A 48.9036 
*END

*D_NET *62 0.000280686
*CONN
*I *179:B I *D sky130_fd_sc_hd__xor2_1
*I *215:X O *D sky130_fd_sc_hd__clkbuf_1
*CAP
1 *179:B 0.000113944
2 *215:X 0.000113944
3 *184:C1 *179:B 3.75959e-05
4 *204:A *179:B 1.52013e-05
*RES
1 *215:X *179:B 29.7786 
*END

*D_NET *63 0.00474595
*CONN
*I *186:A I *D sky130_fd_sc_hd__xor2_1
*I *216:X O *D sky130_fd_sc_hd__buf_1
*CAP
1 *186:A 3.82418e-05
2 *216:X 0.00175066
3 *63:12 0.00178891
4 *63:12 *186:B 0.000361914
5 *63:12 *202:A 0.000221563
6 *63:12 *69:10 6.45627e-05
7 *189:B *63:12 0.000188586
8 *199:A *63:12 0.000211066
9 *216:A *63:12 5.33978e-05
10 *48:8 *63:12 6.70515e-05
*RES
1 *216:X *63:12 49.7464 
2 *63:12 *186:A 10.0321 
*END

*D_NET *64 0.00675955
*CONN
*I *181:A I *D sky130_fd_sc_hd__nand2_1
*I *180:A I *D sky130_fd_sc_hd__or2_1
*I *217:X O *D sky130_fd_sc_hd__clkbuf_1
*CAP
1 *181:A 0.000205477
2 *180:A 0.000373097
3 *217:X 0.00176453
4 *64:6 0.00234311
5 *64:6 *65:14 0.00140323
6 *181:B *181:A 0
7 *184:A1 *180:A 4.37999e-05
8 *184:A2 *180:A 1.59935e-05
9 *184:A2 *181:A 6.2198e-05
10 *184:B1 *180:A 5.52238e-05
11 *184:B2 *180:A 1.403e-05
12 *189:C *181:A 0.000111396
13 *193:B *181:A 0.000103307
14 *194:C *181:A 0.000221013
15 *194:D *181:A 1.00887e-05
16 *195:A *180:A 2.40379e-05
17 *195:A *64:6 9.01775e-06
*RES
1 *217:X *64:6 34.4786 
2 *64:6 *180:A 15.5143 
3 *64:6 *181:A 23.8893 
*END

*D_NET *65 0.00352793
*CONN
*I *193:A I *D sky130_fd_sc_hd__xor2_1
*I *218:X O *D sky130_fd_sc_hd__buf_1
*CAP
1 *193:A 0
2 *218:X 0.000976493
3 *65:14 0.000976493
4 *195:A *65:14 5.23142e-05
5 *196:A2 *65:14 3.14163e-05
6 *197:CLK *65:14 4.74593e-05
7 *201:A *65:14 2.89016e-05
8 *218:A *65:14 1.16198e-05
9 *64:6 *65:14 0.00140323
*RES
1 *218:X *65:14 44.3179 
2 *65:14 *193:A 9.3 
*END

*D_NET *66 0.00419316
*CONN
*I *182:A I *D sky130_fd_sc_hd__nand2_1
*I *183:A I *D sky130_fd_sc_hd__or2_1
*I *219:X O *D sky130_fd_sc_hd__buf_1
*CAP
1 *182:A 0
2 *183:A 0.000126826
3 *219:X 0.00179832
4 *66:14 0.00192515
5 *182:B *183:A 8.77675e-05
6 *182:B *66:14 1.32693e-05
7 *184:B1 *183:A 2.59355e-05
8 *184:B2 *183:A 2.85321e-05
9 *194:C *66:14 2.24804e-05
10 *194:D *66:14 0.000140243
11 *195:C *66:14 2.46444e-05
*RES
1 *219:X *66:14 46.4786 
2 *66:14 *183:A 12.3357 
3 *66:14 *182:A 9.3 
*END

*D_NET *67 0.00331254
*CONN
*I *197:RESET_B I *D sky130_fd_sc_hd__dfrtp_1
*I *198:RESET_B I *D sky130_fd_sc_hd__dfrtp_1
*I *220:X O *D sky130_fd_sc_hd__buf_1
*CAP
1 *197:RESET_B 0.000324387
2 *198:RESET_B 5.32414e-05
3 *220:X 0.000885899
4 *67:10 0.00126353
5 *197:CLK *197:RESET_B 1.00399e-05
6 *197:D *197:RESET_B 0.000120995
7 *198:CLK *67:10 0.000474367
8 *198:D *198:RESET_B 4.84658e-05
9 *198:D *67:10 7.57394e-05
10 *60:20 *67:10 5.58798e-05
*RES
1 *220:X *67:10 24.3536 
2 *67:10 *198:RESET_B 0.883929 
3 *67:10 *197:RESET_B 14.5804 
*END

*D_NET *68 0.00267207
*CONN
*I *228:A I *D sky130_fd_sc_hd__buf_2
*I *203:A I *D sky130_fd_sc_hd__dlygate4sd3_1
*I *198:Q O *D sky130_fd_sc_hd__dfrtp_1
*CAP
1 *228:A 0.000680923
2 *203:A 6.86989e-05
3 *198:Q 9.26863e-05
4 *68:8 0.000842308
5 *192:A *228:A 0.000767864
6 *196:A2 *203:A 4.46186e-06
7 *196:A2 *228:A 3.25078e-05
8 *227:A *228:A 3.97657e-05
9 *60:20 *68:8 0.000142856
*RES
1 *198:Q *68:8 15.1571 
2 *68:8 *203:A 14.8357 
3 *68:8 *228:A 24.2107 
*END

*D_NET *69 0.0017911
*CONN
*I *178:A I *D sky130_fd_sc_hd__xor2_1
*I *196:B1 I *D sky130_fd_sc_hd__o21a_1
*I *202:X O *D sky130_fd_sc_hd__dlygate4sd3_1
*CAP
1 *178:A 0
2 *196:B1 0.00031278
3 *202:X 0.000339635
4 *69:10 0.000652415
5 *196:B1 *74:16 3.51442e-05
6 *69:10 *202:A 7.77751e-05
7 *69:10 *74:16 0.000128146
8 *194:C *196:B1 1.76135e-05
9 *194:C *69:10 6.39901e-05
10 *196:A2 *196:B1 0
11 *198:D *196:B1 9.90367e-05
12 *226:A *196:B1 0
13 *63:12 *69:10 6.45627e-05
*RES
1 *202:X *69:10 19.2643 
2 *69:10 *196:B1 18.675 
3 *69:10 *178:A 13.8 
*END

*D_NET *70 9.72117e-05
*CONN
*I *196:A1 I *D sky130_fd_sc_hd__o21a_1
*I *203:X O *D sky130_fd_sc_hd__dlygate4sd3_1
*CAP
1 *196:A1 2.00323e-05
2 *203:X 2.00323e-05
3 *198:D *196:A1 5.71472e-05
*RES
1 *203:X *196:A1 19.1357 
*END

*D_NET *71 0.000267052
*CONN
*I *191:B I *D sky130_fd_sc_hd__xor2_1
*I *221:X O *D sky130_fd_sc_hd__clkbuf_1
*CAP
1 *191:B 6.56683e-05
2 *221:X 6.56683e-05
3 *191:B *188:B 7.61932e-05
4 *191:B *74:16 5.95217e-05
5 *224:A *191:B 0
*RES
1 *221:X *191:B 20.5107 
*END

*D_NET *72 0.000167414
*CONN
*I *187:B I *D sky130_fd_sc_hd__xor2_1
*I *222:X O *D sky130_fd_sc_hd__clkbuf_1
*CAP
1 *187:B 8.37072e-05
2 *222:X 8.37072e-05
*RES
1 *222:X *187:B 19.975 
*END

*D_NET *73 0.00112545
*CONN
*I *188:B I *D sky130_fd_sc_hd__xor2_1
*I *223:X O *D sky130_fd_sc_hd__clkbuf_1
*CAP
1 *188:B 0.000424062
2 *223:X 0.000424062
3 *188:B *74:16 1.42725e-05
4 *189:C *188:B 0.000101545
5 *191:B *188:B 7.61932e-05
6 *221:A *188:B 3.4963e-05
7 *224:A *188:B 3.18676e-05
8 *57:16 *188:B 1.84865e-05
*RES
1 *223:X *188:B 33.8857 
*END

*D_NET *74 0.00355885
*CONN
*I *178:B I *D sky130_fd_sc_hd__xor2_1
*I *224:X O *D sky130_fd_sc_hd__buf_1
*CAP
1 *178:B 0
2 *224:X 0.000876209
3 *74:16 0.000876209
4 *188:B *74:16 1.42725e-05
5 *191:B *74:16 5.95217e-05
6 *193:B *74:16 0.000131481
7 *194:A *74:16 0.000197378
8 *194:B *74:16 0.00030283
9 *194:C *74:16 0.000109807
10 *195:B *74:16 0
11 *195:C *74:16 0
12 *196:A2 *74:16 0.000194191
13 *196:B1 *74:16 3.51442e-05
14 *221:A *74:16 5.66971e-05
15 *55:12 *74:16 0.000308913
16 *57:16 *74:16 0.000268049
17 *69:10 *74:16 0.000128146
*RES
1 *224:X *74:16 41.1393 
2 *74:16 *178:B 9.3 
*END

*D_NET *75 0.000337336
*CONN
*I *185:B I *D sky130_fd_sc_hd__xor2_1
*I *225:X O *D sky130_fd_sc_hd__clkbuf_1
*CAP
1 *185:B 8.75128e-05
2 *225:X 8.75128e-05
3 *189:A *185:B 5.71472e-05
4 *60:20 *185:B 0.000105163
*RES
1 *225:X *185:B 20.7964 
*END

*D_NET *76 0.000367124
*CONN
*I *192:B I *D sky130_fd_sc_hd__xor2_1
*I *226:X O *D sky130_fd_sc_hd__clkbuf_1
*CAP
1 *192:B 0.000147612
2 *226:X 0.000147612
3 *192:B *186:B 1.92905e-05
4 *226:A *192:B 5.26091e-05
5 *227:A *192:B 0
*RES
1 *226:X *192:B 30.0821 
*END

*D_NET *77 0.000941512
*CONN
*I *186:B I *D sky130_fd_sc_hd__xor2_1
*I *227:X O *D sky130_fd_sc_hd__clkbuf_1
*CAP
1 *186:B 0.000174423
2 *227:X 0.000174423
3 *189:A *186:B 8.15939e-05
4 *192:B *186:B 1.92905e-05
5 *226:A *186:B 0.000129868
6 *63:12 *186:B 0.000361914
*RES
1 *227:X *186:B 32.9571 
*END

*D_NET *78 0.000783894
*CONN
*I *202:A I *D sky130_fd_sc_hd__dlygate4sd3_1
*I *197:Q O *D sky130_fd_sc_hd__dfrtp_1
*CAP
1 *202:A 0.000209013
2 *197:Q 0.000209013
3 *196:A2 *202:A 6.65302e-05
4 *63:12 *202:A 0.000221563
5 *69:10 *202:A 7.77751e-05
*RES
1 *197:Q *202:A 33.0643 
*END
