* NGSPICE file created from decode_all.ext - technology: sky130A

* Black-box entry subcircuit for sky130_fd_sc_hd__fill_1 abstract view
.subckt sky130_fd_sc_hd__fill_1 VGND VNB VPB VPWR
.ends

* Black-box entry subcircuit for sky130_fd_sc_hd__a21o_1 abstract view
.subckt sky130_fd_sc_hd__a21o_1 A1 A2 B1 VGND VNB VPB VPWR X
.ends

* Black-box entry subcircuit for sky130_fd_sc_hd__inv_2 abstract view
.subckt sky130_fd_sc_hd__inv_2 A VGND VNB VPB VPWR Y
.ends

* Black-box entry subcircuit for sky130_fd_sc_hd__nor2_1 abstract view
.subckt sky130_fd_sc_hd__nor2_1 A B VGND VNB VPB VPWR Y
.ends

* Black-box entry subcircuit for sky130_fd_sc_hd__a21oi_1 abstract view
.subckt sky130_fd_sc_hd__a21oi_1 A1 A2 B1 VGND VNB VPB VPWR Y
.ends

* Black-box entry subcircuit for sky130_fd_sc_hd__fill_2 abstract view
.subckt sky130_fd_sc_hd__fill_2 VGND VNB VPB VPWR
.ends

* Black-box entry subcircuit for sky130_fd_sc_hd__xnor2_1 abstract view
.subckt sky130_fd_sc_hd__xnor2_1 A B VGND VNB VPB VPWR Y
.ends

* Black-box entry subcircuit for sky130_fd_sc_hd__tapvpwrvgnd_1 abstract view
.subckt sky130_fd_sc_hd__tapvpwrvgnd_1 VGND VPWR
.ends

* Black-box entry subcircuit for sky130_fd_sc_hd__nor3_1 abstract view
.subckt sky130_fd_sc_hd__nor3_1 A B C VGND VNB VPB VPWR Y
.ends

* Black-box entry subcircuit for sky130_ef_sc_hd__decap_12 abstract view
.subckt sky130_ef_sc_hd__decap_12 VPWR VGND VPB VNB
.ends

* Black-box entry subcircuit for sky130_fd_sc_hd__and2b_1 abstract view
.subckt sky130_fd_sc_hd__and2b_1 A_N B VGND VNB VPB VPWR X
.ends

* Black-box entry subcircuit for sky130_fd_sc_hd__buf_2 abstract view
.subckt sky130_fd_sc_hd__buf_2 A VGND VNB VPB VPWR X
.ends

* Black-box entry subcircuit for sky130_fd_sc_hd__conb_1 abstract view
.subckt sky130_fd_sc_hd__conb_1 VGND VNB VPB VPWR HI LO
.ends

* Black-box entry subcircuit for sky130_fd_sc_hd__a31o_1 abstract view
.subckt sky130_fd_sc_hd__a31o_1 A1 A2 A3 B1 VGND VNB VPB VPWR X
.ends

* Black-box entry subcircuit for sky130_fd_sc_hd__nand2b_1 abstract view
.subckt sky130_fd_sc_hd__nand2b_1 A_N B VGND VNB VPB VPWR Y
.ends

* Black-box entry subcircuit for sky130_fd_sc_hd__decap_6 abstract view
.subckt sky130_fd_sc_hd__decap_6 VGND VNB VPB VPWR
.ends

* Black-box entry subcircuit for sky130_fd_sc_hd__a2bb2o_1 abstract view
.subckt sky130_fd_sc_hd__a2bb2o_1 A1_N A2_N B1 B2 VGND VNB VPB VPWR X
.ends

* Black-box entry subcircuit for sky130_fd_sc_hd__xor2_2 abstract view
.subckt sky130_fd_sc_hd__xor2_2 A B VGND VNB VPB VPWR X
.ends

* Black-box entry subcircuit for sky130_fd_sc_hd__a21oi_2 abstract view
.subckt sky130_fd_sc_hd__a21oi_2 A1 A2 B1 VGND VNB VPB VPWR Y
.ends

* Black-box entry subcircuit for sky130_fd_sc_hd__decap_4 abstract view
.subckt sky130_fd_sc_hd__decap_4 VGND VNB VPB VPWR
.ends

* Black-box entry subcircuit for sky130_fd_sc_hd__decap_3 abstract view
.subckt sky130_fd_sc_hd__decap_3 VGND VNB VPB VPWR
.ends

* Black-box entry subcircuit for sky130_fd_sc_hd__and3_1 abstract view
.subckt sky130_fd_sc_hd__and3_1 A B C VGND VNB VPB VPWR X
.ends

* Black-box entry subcircuit for sky130_fd_sc_hd__o21a_1 abstract view
.subckt sky130_fd_sc_hd__o21a_1 A1 A2 B1 VGND VNB VPB VPWR X
.ends

* Black-box entry subcircuit for sky130_fd_sc_hd__o2bb2a_1 abstract view
.subckt sky130_fd_sc_hd__o2bb2a_1 A1_N A2_N B1 B2 VGND VNB VPB VPWR X
.ends

* Black-box entry subcircuit for sky130_fd_sc_hd__a22o_1 abstract view
.subckt sky130_fd_sc_hd__a22o_1 A1 A2 B1 B2 VGND VNB VPB VPWR X
.ends

* Black-box entry subcircuit for sky130_fd_sc_hd__a2111o_1 abstract view
.subckt sky130_fd_sc_hd__a2111o_1 A1 A2 B1 C1 D1 VGND VNB VPB VPWR X
.ends

* Black-box entry subcircuit for sky130_fd_sc_hd__decap_8 abstract view
.subckt sky130_fd_sc_hd__decap_8 VGND VNB VPB VPWR
.ends

* Black-box entry subcircuit for sky130_fd_sc_hd__nand2_1 abstract view
.subckt sky130_fd_sc_hd__nand2_1 A B VGND VNB VPB VPWR Y
.ends

* Black-box entry subcircuit for sky130_fd_sc_hd__or2_1 abstract view
.subckt sky130_fd_sc_hd__or2_1 A B VGND VNB VPB VPWR X
.ends

* Black-box entry subcircuit for sky130_fd_sc_hd__a21bo_1 abstract view
.subckt sky130_fd_sc_hd__a21bo_1 A1 A2 B1_N VGND VNB VPB VPWR X
.ends

* Black-box entry subcircuit for sky130_fd_sc_hd__o22ai_1 abstract view
.subckt sky130_fd_sc_hd__o22ai_1 A1 A2 B1 B2 VGND VNB VPB VPWR Y
.ends

* Black-box entry subcircuit for sky130_fd_sc_hd__o21bai_2 abstract view
.subckt sky130_fd_sc_hd__o21bai_2 A1 A2 B1_N VGND VNB VPB VPWR Y
.ends

* Black-box entry subcircuit for sky130_fd_sc_hd__o211a_1 abstract view
.subckt sky130_fd_sc_hd__o211a_1 A1 A2 B1 C1 VGND VNB VPB VPWR X
.ends

* Black-box entry subcircuit for sky130_fd_sc_hd__o21ai_1 abstract view
.subckt sky130_fd_sc_hd__o21ai_1 A1 A2 B1 VGND VNB VPB VPWR Y
.ends

* Black-box entry subcircuit for sky130_fd_sc_hd__and2_1 abstract view
.subckt sky130_fd_sc_hd__and2_1 A B VGND VNB VPB VPWR X
.ends

* Black-box entry subcircuit for sky130_fd_sc_hd__and3b_1 abstract view
.subckt sky130_fd_sc_hd__and3b_1 A_N B C VGND VNB VPB VPWR X
.ends

* Black-box entry subcircuit for sky130_fd_sc_hd__a211o_1 abstract view
.subckt sky130_fd_sc_hd__a211o_1 A1 A2 B1 C1 VGND VNB VPB VPWR X
.ends

* Black-box entry subcircuit for sky130_fd_sc_hd__o211a_2 abstract view
.subckt sky130_fd_sc_hd__o211a_2 A1 A2 B1 C1 VGND VNB VPB VPWR X
.ends

* Black-box entry subcircuit for sky130_fd_sc_hd__a21boi_1 abstract view
.subckt sky130_fd_sc_hd__a21boi_1 A1 A2 B1_N VGND VNB VPB VPWR Y
.ends

* Black-box entry subcircuit for sky130_fd_sc_hd__o21ba_1 abstract view
.subckt sky130_fd_sc_hd__o21ba_1 A1 A2 B1_N VGND VNB VPB VPWR X
.ends

* Black-box entry subcircuit for sky130_fd_sc_hd__nor4_1 abstract view
.subckt sky130_fd_sc_hd__nor4_1 A B C D VGND VNB VPB VPWR Y
.ends

* Black-box entry subcircuit for sky130_fd_sc_hd__a2111oi_1 abstract view
.subckt sky130_fd_sc_hd__a2111oi_1 A1 A2 B1 C1 D1 VGND VNB VPB VPWR Y
.ends

* Black-box entry subcircuit for sky130_fd_sc_hd__xor2_1 abstract view
.subckt sky130_fd_sc_hd__xor2_1 A B VGND VNB VPB VPWR X
.ends

* Black-box entry subcircuit for sky130_fd_sc_hd__xnor2_2 abstract view
.subckt sky130_fd_sc_hd__xnor2_2 A B VGND VNB VPB VPWR Y
.ends

* Black-box entry subcircuit for sky130_fd_sc_hd__clkbuf_2 abstract view
.subckt sky130_fd_sc_hd__clkbuf_2 A VGND VNB VPB VPWR X
.ends

* Black-box entry subcircuit for sky130_fd_sc_hd__o22a_1 abstract view
.subckt sky130_fd_sc_hd__o22a_1 A1 A2 B1 B2 VGND VNB VPB VPWR X
.ends

* Black-box entry subcircuit for sky130_fd_sc_hd__o21ai_2 abstract view
.subckt sky130_fd_sc_hd__o21ai_2 A1 A2 B1 VGND VNB VPB VPWR Y
.ends

* Black-box entry subcircuit for sky130_fd_sc_hd__mux2_2 abstract view
.subckt sky130_fd_sc_hd__mux2_2 A0 A1 S VGND VNB VPB VPWR X
.ends

* Black-box entry subcircuit for sky130_fd_sc_hd__a41o_1 abstract view
.subckt sky130_fd_sc_hd__a41o_1 A1 A2 A3 A4 B1 VGND VNB VPB VPWR X
.ends

* Black-box entry subcircuit for sky130_fd_sc_hd__a22oi_1 abstract view
.subckt sky130_fd_sc_hd__a22oi_1 A1 A2 B1 B2 VGND VNB VPB VPWR Y
.ends

* Black-box entry subcircuit for sky130_fd_sc_hd__a211oi_1 abstract view
.subckt sky130_fd_sc_hd__a211oi_1 A1 A2 B1 C1 VGND VNB VPB VPWR Y
.ends

* Black-box entry subcircuit for sky130_fd_sc_hd__a221o_1 abstract view
.subckt sky130_fd_sc_hd__a221o_1 A1 A2 B1 B2 C1 VGND VNB VPB VPWR X
.ends

* Black-box entry subcircuit for sky130_fd_sc_hd__a32o_2 abstract view
.subckt sky130_fd_sc_hd__a32o_2 A1 A2 A3 B1 B2 VGND VNB VPB VPWR X
.ends

* Black-box entry subcircuit for sky130_fd_sc_hd__a21o_2 abstract view
.subckt sky130_fd_sc_hd__a21o_2 A1 A2 B1 VGND VNB VPB VPWR X
.ends

* Black-box entry subcircuit for sky130_fd_sc_hd__and4_1 abstract view
.subckt sky130_fd_sc_hd__and4_1 A B C D VGND VNB VPB VPWR X
.ends

* Black-box entry subcircuit for sky130_fd_sc_hd__xnor2_4 abstract view
.subckt sky130_fd_sc_hd__xnor2_4 A B VGND VNB VPB VPWR Y
.ends

* Black-box entry subcircuit for sky130_fd_sc_hd__mux2_1 abstract view
.subckt sky130_fd_sc_hd__mux2_1 A0 A1 S VGND VNB VPB VPWR X
.ends

* Black-box entry subcircuit for sky130_fd_sc_hd__dlymetal6s2s_1 abstract view
.subckt sky130_fd_sc_hd__dlymetal6s2s_1 A VGND VNB VPB VPWR X
.ends

* Black-box entry subcircuit for sky130_fd_sc_hd__buf_4 abstract view
.subckt sky130_fd_sc_hd__buf_4 A VGND VNB VPB VPWR X
.ends

* Black-box entry subcircuit for sky130_fd_sc_hd__clkbuf_1 abstract view
.subckt sky130_fd_sc_hd__clkbuf_1 A VGND VNB VPB VPWR X
.ends

* Black-box entry subcircuit for sky130_fd_sc_hd__buf_1 abstract view
.subckt sky130_fd_sc_hd__buf_1 A VGND VNB VPB VPWR X
.ends

* Black-box entry subcircuit for sky130_fd_sc_hd__and4b_1 abstract view
.subckt sky130_fd_sc_hd__and4b_1 A_N B C D VGND VNB VPB VPWR X
.ends

* Black-box entry subcircuit for sky130_fd_sc_hd__o221a_1 abstract view
.subckt sky130_fd_sc_hd__o221a_1 A1 A2 B1 B2 C1 VGND VNB VPB VPWR X
.ends

* Black-box entry subcircuit for sky130_fd_sc_hd__nand3_1 abstract view
.subckt sky130_fd_sc_hd__nand3_1 A B C VGND VNB VPB VPWR Y
.ends

* Black-box entry subcircuit for sky130_fd_sc_hd__and2_2 abstract view
.subckt sky130_fd_sc_hd__and2_2 A B VGND VNB VPB VPWR X
.ends

* Black-box entry subcircuit for sky130_fd_sc_hd__or3b_1 abstract view
.subckt sky130_fd_sc_hd__or3b_1 A B C_N VGND VNB VPB VPWR X
.ends

* Black-box entry subcircuit for sky130_fd_sc_hd__o21bai_1 abstract view
.subckt sky130_fd_sc_hd__o21bai_1 A1 A2 B1_N VGND VNB VPB VPWR Y
.ends

.subckt decode_all VGND VPWR day[0] day[1] day[2] day[3] day[4] hour[0] hour[1] hour[2]
+ hour[3] hour[4] led_day[0] led_day[10] led_day[11] led_day[12] led_day[13] led_day[1]
+ led_day[2] led_day[3] led_day[4] led_day[5] led_day[6] led_day[7] led_day[8] led_day[9]
+ led_hour[0] led_hour[10] led_hour[11] led_hour[12] led_hour[13] led_hour[1] led_hour[2]
+ led_hour[3] led_hour[4] led_hour[5] led_hour[6] led_hour[7] led_hour[8] led_hour[9]
+ led_min[0] led_min[10] led_min[11] led_min[12] led_min[13] led_min[1] led_min[2]
+ led_min[3] led_min[4] led_min[5] led_min[6] led_min[7] led_min[8] led_min[9] led_month[0]
+ led_month[10] led_month[11] led_month[12] led_month[13] led_month[1] led_month[2]
+ led_month[3] led_month[4] led_month[5] led_month[6] led_month[7] led_month[8] led_month[9]
+ led_sec[0] led_sec[10] led_sec[11] led_sec[12] led_sec[13] led_sec[1] led_sec[2]
+ led_sec[3] led_sec[4] led_sec[5] led_sec[6] led_sec[7] led_sec[8] led_sec[9] led_year[0]
+ led_year[10] led_year[11] led_year[12] led_year[13] led_year[1] led_year[2] led_year[3]
+ led_year[4] led_year[5] led_year[6] led_year[7] led_year[8] led_year[9] minute[0]
+ minute[1] minute[2] minute[3] minute[4] minute[5] month[0] month[1] month[2] month[3]
+ second[0] second[1] second[2] second[3] second[4] second[5] year[0] year[1] year[2]
+ year[3] year[4] year[5] year[6]
XFILLER_13_155 VGND VGND VPWR VPWR sky130_fd_sc_hd__fill_1
X_363_ _115_ _119_ net21 VGND VGND VPWR VPWR net93 sky130_fd_sc_hd__a21o_1
X_294_ _070_ VGND VGND VPWR VPWR _071_ sky130_fd_sc_hd__inv_2
X_432_ _133_ _150_ VGND VGND VPWR VPWR _175_ sky130_fd_sc_hd__nor2_1
X_415_ _159_ _164_ _163_ VGND VGND VPWR VPWR _165_ sky130_fd_sc_hd__a21oi_1
XFILLER_12_65 VGND VGND VPWR VPWR sky130_fd_sc_hd__fill_2
X_346_ net26 _101_ VGND VGND VPWR VPWR _109_ sky130_fd_sc_hd__xnor2_1
XTAP_TAPCELL_ROW_8_77 VGND VPWR sky130_fd_sc_hd__tapvpwrvgnd_1
X_277_ net1 _054_ _058_ VGND VGND VPWR VPWR net40 sky130_fd_sc_hd__nor3_1
X_200_ net11 VGND VGND VPWR VPWR _002_ sky130_fd_sc_hd__inv_2
XFILLER_0_57 VPWR VGND VPWR VGND sky130_ef_sc_hd__decap_12
XFILLER_2_121 VPWR VGND VPWR VGND sky130_ef_sc_hd__decap_12
XFILLER_2_165 VPWR VGND VPWR VGND sky130_ef_sc_hd__decap_12
X_329_ _090_ _091_ VGND VGND VPWR VPWR _092_ sky130_fd_sc_hd__and2b_1
XFILLER_11_242 VGND VGND VPWR VPWR sky130_fd_sc_hd__fill_1
Xoutput53 net53 VGND VGND VPWR VPWR led_hour[2] sky130_fd_sc_hd__buf_2
Xoutput42 net42 VGND VGND VPWR VPWR led_day[4] sky130_fd_sc_hd__buf_2
Xoutput75 net75 VGND VGND VPWR VPWR led_month[10] sky130_fd_sc_hd__buf_2
Xoutput64 net64 VGND VGND VPWR VPWR led_min[13] sky130_fd_sc_hd__buf_2
Xoutput97 net97 VGND VGND VPWR VPWR led_sec[8] sky130_fd_sc_hd__buf_2
Xoutput86 net86 VGND VGND VPWR VPWR led_sec[10] sky130_fd_sc_hd__buf_2
XTAP_TAPCELL_ROW_2_46 VGND VPWR sky130_fd_sc_hd__tapvpwrvgnd_1
Xdecode_all_113 VGND VGND VPWR VPWR decode_all_113/HI led_month[8] sky130_fd_sc_hd__conb_1
X_431_ _164_ _170_ _173_ _174_ VGND VGND VPWR VPWR net103 sky130_fd_sc_hd__a31o_1
X_293_ _036_ _069_ VGND VGND VPWR VPWR _070_ sky130_fd_sc_hd__nand2b_1
XFILLER_9_105 VGND VGND VPWR VPWR sky130_fd_sc_hd__decap_6
X_362_ _097_ _100_ _114_ _117_ VGND VGND VPWR VPWR _119_ sky130_fd_sc_hd__a2bb2o_1
XFILLER_3_57 VPWR VGND VPWR VGND sky130_ef_sc_hd__decap_12
XTAP_TAPCELL_ROW_12_99 VGND VPWR sky130_fd_sc_hd__tapvpwrvgnd_1
XFILLER_12_44 VGND VGND VPWR VPWR sky130_fd_sc_hd__fill_2
XTAP_TAPCELL_ROW_8_78 VGND VPWR sky130_fd_sc_hd__tapvpwrvgnd_1
X_345_ _102_ _106_ VGND VGND VPWR VPWR _108_ sky130_fd_sc_hd__xor2_2
X_414_ _157_ _158_ _161_ VGND VGND VPWR VPWR _164_ sky130_fd_sc_hd__a21oi_2
X_276_ _061_ _062_ VGND VGND VPWR VPWR net39 sky130_fd_sc_hd__nor2_1
XFILLER_5_163 VGND VGND VPWR VPWR sky130_fd_sc_hd__decap_4
XPHY_EDGE_ROW_12_Right_12 VGND VGND VPWR VPWR sky130_fd_sc_hd__decap_3
X_259_ net2 net4 _043_ VGND VGND VPWR VPWR _048_ sky130_fd_sc_hd__and3_1
XFILLER_0_69 VPWR VGND VPWR VGND sky130_ef_sc_hd__decap_12
XFILLER_2_133 VGND VGND VPWR VPWR sky130_fd_sc_hd__decap_6
XFILLER_2_177 VPWR VGND VPWR VGND sky130_ef_sc_hd__decap_12
X_328_ net25 net23 net24 VGND VGND VPWR VPWR _091_ sky130_fd_sc_hd__a21o_1
XPHY_EDGE_ROW_12_Left_26 VGND VGND VPWR VPWR sky130_fd_sc_hd__decap_3
XFILLER_3_261 VPWR VGND VPWR VGND sky130_ef_sc_hd__decap_12
XPHY_EDGE_ROW_6_Right_6 VGND VGND VPWR VPWR sky130_fd_sc_hd__decap_3
Xoutput65 net65 VGND VGND VPWR VPWR led_min[1] sky130_fd_sc_hd__buf_2
Xoutput54 net54 VGND VGND VPWR VPWR led_hour[3] sky130_fd_sc_hd__buf_2
Xoutput76 net76 VGND VGND VPWR VPWR led_month[11] sky130_fd_sc_hd__buf_2
Xoutput43 net43 VGND VGND VPWR VPWR led_day[5] sky130_fd_sc_hd__buf_2
Xoutput87 net87 VGND VGND VPWR VPWR led_sec[11] sky130_fd_sc_hd__buf_2
Xoutput98 net98 VGND VGND VPWR VPWR led_sec[9] sky130_fd_sc_hd__buf_2
XFILLER_0_253 VPWR VGND VPWR VGND sky130_ef_sc_hd__decap_12
XTAP_TAPCELL_ROW_2_47 VGND VPWR sky130_fd_sc_hd__tapvpwrvgnd_1
Xdecode_all_114 VGND VGND VPWR VPWR decode_all_114/HI led_month[9] sky130_fd_sc_hd__conb_1
X_430_ _157_ _158_ _161_ VGND VGND VPWR VPWR _174_ sky130_fd_sc_hd__o21a_1
X_361_ _114_ _117_ _097_ _100_ VGND VGND VPWR VPWR _118_ sky130_fd_sc_hd__o2bb2a_1
X_292_ net10 _067_ _068_ net8 VGND VGND VPWR VPWR _069_ sky130_fd_sc_hd__a22o_1
XFILLER_8_194 VGND VGND VPWR VPWR sky130_fd_sc_hd__fill_2
XFILLER_8_150 VGND VGND VPWR VPWR sky130_fd_sc_hd__fill_2
XFILLER_3_69 VPWR VGND VPWR VGND sky130_ef_sc_hd__decap_12
XPHY_EDGE_ROW_0_Left_14 VGND VGND VPWR VPWR sky130_fd_sc_hd__decap_3
X_275_ net1 _053_ VGND VGND VPWR VPWR _062_ sky130_fd_sc_hd__nor2_1
X_413_ _157_ _158_ _162_ VGND VGND VPWR VPWR _163_ sky130_fd_sc_hd__and3_1
X_344_ _098_ _100_ _101_ _104_ _105_ VGND VGND VPWR VPWR _107_ sky130_fd_sc_hd__a2111o_1
XTAP_TAPCELL_ROW_8_79 VGND VPWR sky130_fd_sc_hd__tapvpwrvgnd_1
XFILLER_5_120 VGND VGND VPWR VPWR sky130_fd_sc_hd__decap_8
XFILLER_0_15 VPWR VGND VPWR VGND sky130_ef_sc_hd__decap_12
XFILLER_2_189 VGND VGND VPWR VPWR sky130_fd_sc_hd__decap_6
XFILLER_3_3 VPWR VGND VPWR VGND sky130_ef_sc_hd__decap_12
XFILLER_9_68 VGND VGND VPWR VPWR sky130_fd_sc_hd__decap_8
XFILLER_9_57 VGND VGND VPWR VPWR sky130_fd_sc_hd__fill_1
X_258_ net2 net5 VGND VGND VPWR VPWR _047_ sky130_fd_sc_hd__nand2_1
X_327_ net25 net23 net24 VGND VGND VPWR VPWR _090_ sky130_fd_sc_hd__and3_1
XFILLER_11_299 VGND VGND VPWR VPWR sky130_fd_sc_hd__fill_1
XFILLER_11_222 VGND VGND VPWR VPWR sky130_fd_sc_hd__fill_2
XFILLER_7_215 VGND VGND VPWR VPWR sky130_fd_sc_hd__decap_4
XFILLER_7_248 VGND VGND VPWR VPWR sky130_fd_sc_hd__fill_2
XFILLER_3_273 VGND VGND VPWR VPWR sky130_fd_sc_hd__decap_6
Xoutput55 net55 VGND VGND VPWR VPWR led_hour[4] sky130_fd_sc_hd__buf_2
Xoutput66 net66 VGND VGND VPWR VPWR led_min[2] sky130_fd_sc_hd__buf_2
Xoutput77 net77 VGND VGND VPWR VPWR led_month[12] sky130_fd_sc_hd__buf_2
Xoutput44 net44 VGND VGND VPWR VPWR led_day[6] sky130_fd_sc_hd__buf_2
Xoutput99 net99 VGND VGND VPWR VPWR led_year[0] sky130_fd_sc_hd__buf_2
Xoutput88 net88 VGND VGND VPWR VPWR led_sec[12] sky130_fd_sc_hd__buf_2
XFILLER_0_265 VPWR VGND VPWR VGND sky130_ef_sc_hd__decap_12
XFILLER_0_221 VGND VGND VPWR VPWR sky130_fd_sc_hd__decap_3
XTAP_TAPCELL_ROW_2_48 VGND VPWR sky130_fd_sc_hd__tapvpwrvgnd_1
Xdecode_all_115 VGND VGND VPWR VPWR decode_all_115/HI led_day[8] sky130_fd_sc_hd__conb_1
XFILLER_10_309 VGND VGND VPWR VPWR sky130_fd_sc_hd__fill_1
XFILLER_9_118 VPWR VGND VPWR VGND sky130_ef_sc_hd__decap_12
X_360_ _090_ _094_ VGND VGND VPWR VPWR _117_ sky130_fd_sc_hd__nor2_1
X_291_ net7 net9 VGND VGND VPWR VPWR _068_ sky130_fd_sc_hd__nand2b_1
XFILLER_3_15 VPWR VGND VPWR VGND sky130_ef_sc_hd__decap_12
X_412_ _160_ _161_ VGND VGND VPWR VPWR _162_ sky130_fd_sc_hd__or2_1
X_274_ net1 _053_ _058_ VGND VGND VPWR VPWR _061_ sky130_fd_sc_hd__a21bo_1
X_343_ _104_ _105_ VGND VGND VPWR VPWR _106_ sky130_fd_sc_hd__nor2_1
XFILLER_5_110 VGND VGND VPWR VPWR sky130_fd_sc_hd__fill_2
XFILLER_0_27 VGND VGND VPWR VPWR sky130_fd_sc_hd__fill_1
X_257_ net4 _043_ _045_ net3 VGND VGND VPWR VPWR _046_ sky130_fd_sc_hd__o22ai_1
X_326_ net25 net23 VGND VGND VPWR VPWR _089_ sky130_fd_sc_hd__xor2_2
XFILLER_11_278 VGND VGND VPWR VPWR sky130_fd_sc_hd__fill_2
X_309_ net18 _004_ _078_ VGND VGND VPWR VPWR _079_ sky130_fd_sc_hd__o21bai_2
XFILLER_6_282 VGND VGND VPWR VPWR sky130_fd_sc_hd__fill_1
XFILLER_1_81 VPWR VGND VPWR VGND sky130_ef_sc_hd__decap_12
XTAP_TAPCELL_ROW_10_90 VGND VPWR sky130_fd_sc_hd__tapvpwrvgnd_1
XFILLER_6_15 VPWR VGND VPWR VGND sky130_ef_sc_hd__decap_12
Xoutput56 net56 VGND VGND VPWR VPWR led_hour[5] sky130_fd_sc_hd__buf_2
Xoutput67 net67 VGND VGND VPWR VPWR led_min[3] sky130_fd_sc_hd__buf_2
Xoutput45 net45 VGND VGND VPWR VPWR led_day[7] sky130_fd_sc_hd__buf_2
Xoutput78 net78 VGND VGND VPWR VPWR led_month[1] sky130_fd_sc_hd__buf_2
Xoutput34 net34 VGND VGND VPWR VPWR led_day[0] sky130_fd_sc_hd__buf_2
Xoutput89 net89 VGND VGND VPWR VPWR led_sec[13] sky130_fd_sc_hd__buf_2
XFILLER_0_299 VGND VGND VPWR VPWR sky130_fd_sc_hd__fill_1
XFILLER_0_277 VGND VGND VPWR VPWR sky130_fd_sc_hd__decap_3
XTAP_TAPCELL_ROW_2_49 VGND VPWR sky130_fd_sc_hd__tapvpwrvgnd_1
Xdecode_all_116 VGND VGND VPWR VPWR decode_all_116/HI led_hour[8] sky130_fd_sc_hd__conb_1
XFILLER_3_27 VPWR VGND VPWR VGND sky130_ef_sc_hd__decap_12
X_290_ net9 net7 VGND VGND VPWR VPWR _067_ sky130_fd_sc_hd__nand2b_1
XFILLER_12_14 VGND VGND VPWR VPWR sky130_fd_sc_hd__fill_2
XFILLER_8_174 VGND VGND VPWR VPWR sky130_fd_sc_hd__decap_3
X_273_ net42 _059_ _060_ VGND VGND VPWR VPWR net34 sky130_fd_sc_hd__and3_1
X_342_ net26 net25 VGND VGND VPWR VPWR _105_ sky130_fd_sc_hd__nor2_1
X_411_ net32 _148_ net33 VGND VGND VPWR VPWR _161_ sky130_fd_sc_hd__o21a_1
X_256_ net2 net5 VGND VGND VPWR VPWR _045_ sky130_fd_sc_hd__or2_1
X_325_ net26 _086_ _085_ VGND VGND VPWR VPWR _088_ sky130_fd_sc_hd__a21bo_1
X_239_ net11 _024_ _030_ _032_ VGND VGND VPWR VPWR net69 sky130_fd_sc_hd__o211a_1
X_308_ net20 net18 VGND VGND VPWR VPWR _078_ sky130_fd_sc_hd__and2b_1
XFILLER_1_93 VPWR VGND VPWR VGND sky130_ef_sc_hd__decap_12
XTAP_TAPCELL_ROW_10_91 VGND VPWR sky130_fd_sc_hd__tapvpwrvgnd_1
XFILLER_4_209 VPWR VGND VPWR VGND sky130_ef_sc_hd__decap_12
XFILLER_6_27 VGND VGND VPWR VPWR sky130_fd_sc_hd__fill_1
XTAP_TAPCELL_ROW_6_70 VGND VPWR sky130_fd_sc_hd__tapvpwrvgnd_1
Xoutput46 net46 VGND VGND VPWR VPWR led_day[9] sky130_fd_sc_hd__buf_2
Xoutput57 net57 VGND VGND VPWR VPWR led_hour[6] sky130_fd_sc_hd__buf_2
Xoutput35 net35 VGND VGND VPWR VPWR led_day[10] sky130_fd_sc_hd__buf_2
Xoutput68 net68 VGND VGND VPWR VPWR led_min[4] sky130_fd_sc_hd__buf_2
Xoutput79 net79 VGND VGND VPWR VPWR led_month[2] sky130_fd_sc_hd__buf_2
XFILLER_8_301 VGND VGND VPWR VPWR sky130_fd_sc_hd__fill_2
Xdecode_all_117 VGND VGND VPWR VPWR led_month[13] decode_all_117/LO sky130_fd_sc_hd__conb_1
XFILLER_7_81 VGND VGND VPWR VPWR sky130_fd_sc_hd__decap_6
XFILLER_3_39 VPWR VGND VPWR VGND sky130_ef_sc_hd__decap_12
XFILLER_8_197 VGND VGND VPWR VPWR sky130_fd_sc_hd__decap_8
X_410_ _159_ VGND VGND VPWR VPWR _160_ sky130_fd_sc_hd__inv_2
X_272_ _053_ _058_ net1 VGND VGND VPWR VPWR _060_ sky130_fd_sc_hd__o21ai_1
X_341_ _103_ VGND VGND VPWR VPWR _104_ sky130_fd_sc_hd__inv_2
XFILLER_5_167 VGND VGND VPWR VPWR sky130_fd_sc_hd__fill_1
XPHY_EDGE_ROW_4_Left_18 VGND VGND VPWR VPWR sky130_fd_sc_hd__decap_3
X_255_ net5 net3 VGND VGND VPWR VPWR _044_ sky130_fd_sc_hd__nand2_1
XFILLER_0_29 VPWR VGND VPWR VGND sky130_ef_sc_hd__decap_12
X_324_ _085_ _086_ VGND VGND VPWR VPWR _087_ sky130_fd_sc_hd__nand2_1
XFILLER_1_181 VPWR VGND VPWR VGND sky130_ef_sc_hd__decap_12
XFILLER_1_3 VPWR VGND VPWR VGND sky130_ef_sc_hd__decap_12
X_238_ net68 _028_ _031_ _034_ VGND VGND VPWR VPWR net67 sky130_fd_sc_hd__a31o_1
X_307_ _065_ _070_ _077_ VGND VGND VPWR VPWR net57 sky130_fd_sc_hd__a21oi_1
XTAP_TAPCELL_ROW_10_92 VGND VPWR sky130_fd_sc_hd__tapvpwrvgnd_1
XFILLER_10_92 VGND VGND VPWR VPWR sky130_fd_sc_hd__fill_2
XTAP_TAPCELL_ROW_6_71 VGND VPWR sky130_fd_sc_hd__tapvpwrvgnd_1
XPHY_EDGE_ROW_7_Left_21 VGND VGND VPWR VPWR sky130_fd_sc_hd__decap_3
XFILLER_13_309 VGND VGND VPWR VPWR sky130_fd_sc_hd__fill_1
Xoutput69 net69 VGND VGND VPWR VPWR led_min[5] sky130_fd_sc_hd__buf_2
Xoutput47 net47 VGND VGND VPWR VPWR led_hour[0] sky130_fd_sc_hd__buf_2
Xoutput58 net58 VGND VGND VPWR VPWR led_hour[7] sky130_fd_sc_hd__buf_2
Xoutput36 net36 VGND VGND VPWR VPWR led_day[11] sky130_fd_sc_hd__buf_2
XTAP_TAPCELL_ROW_3_50 VGND VPWR sky130_fd_sc_hd__tapvpwrvgnd_1
X_271_ _046_ _051_ _055_ _044_ VGND VGND VPWR VPWR _059_ sky130_fd_sc_hd__o2bb2a_1
X_340_ net26 net25 VGND VGND VPWR VPWR _103_ sky130_fd_sc_hd__nand2_1
XFILLER_5_102 VGND VGND VPWR VPWR sky130_fd_sc_hd__decap_8
XFILLER_5_146 VGND VGND VPWR VPWR sky130_fd_sc_hd__decap_4
X_469_ net37 net38 VGND VGND VPWR VPWR net35 sky130_fd_sc_hd__and2_1
XFILLER_4_83 VGND VGND VPWR VPWR sky130_fd_sc_hd__fill_1
X_254_ net5 net3 VGND VGND VPWR VPWR _043_ sky130_fd_sc_hd__and2_1
X_323_ net25 net22 VGND VGND VPWR VPWR _086_ sky130_fd_sc_hd__or2_1
XFILLER_1_193 VPWR VGND VPWR VGND sky130_ef_sc_hd__decap_12
X_237_ _027_ _024_ net11 VGND VGND VPWR VPWR _034_ sky130_fd_sc_hd__and3b_1
X_306_ _076_ _077_ VGND VGND VPWR VPWR net56 sky130_fd_sc_hd__nor2_1
XFILLER_6_230 VGND VGND VPWR VPWR sky130_fd_sc_hd__decap_3
XFILLER_1_51 VGND VGND VPWR VPWR sky130_fd_sc_hd__decap_4
XTAP_TAPCELL_ROW_10_93 VGND VPWR sky130_fd_sc_hd__tapvpwrvgnd_1
XFILLER_10_82 VGND VGND VPWR VPWR sky130_fd_sc_hd__fill_2
XFILLER_6_29 VPWR VGND VPWR VGND sky130_ef_sc_hd__decap_12
Xoutput37 net37 VGND VGND VPWR VPWR led_day[12] sky130_fd_sc_hd__buf_2
Xoutput59 net59 VGND VGND VPWR VPWR led_hour[9] sky130_fd_sc_hd__buf_2
Xoutput48 net48 VGND VGND VPWR VPWR led_hour[10] sky130_fd_sc_hd__buf_2
XPHY_EDGE_ROW_1_Right_1 VGND VGND VPWR VPWR sky130_fd_sc_hd__decap_3
XFILLER_0_225 VPWR VGND VPWR VGND sky130_ef_sc_hd__decap_12
XFILLER_12_184 VGND VGND VPWR VPWR sky130_fd_sc_hd__fill_1
XFILLER_8_133 VGND VGND VPWR VPWR sky130_fd_sc_hd__decap_6
XTAP_TAPCELL_ROW_3_51 VGND VPWR sky130_fd_sc_hd__tapvpwrvgnd_1
X_270_ _054_ _058_ net1 VGND VGND VPWR VPWR net42 sky130_fd_sc_hd__a21o_1
XFILLER_5_169 VPWR VGND VPWR VGND sky130_ef_sc_hd__decap_12
X_468_ net50 net51 VGND VGND VPWR VPWR net48 sky130_fd_sc_hd__and2_1
X_399_ _134_ _138_ _141_ VGND VGND VPWR VPWR _149_ sky130_fd_sc_hd__o21ai_1
XFILLER_2_139 VGND VGND VPWR VPWR sky130_fd_sc_hd__fill_1
X_322_ net25 net22 VGND VGND VPWR VPWR _085_ sky130_fd_sc_hd__nand2_1
X_253_ net50 net51 VGND VGND VPWR VPWR net58 sky130_fd_sc_hd__and2_1
XTAP_TAPCELL_ROW_9_83 VGND VPWR sky130_fd_sc_hd__tapvpwrvgnd_1
XFILLER_1_161 VGND VGND VPWR VPWR sky130_fd_sc_hd__decap_6
XTAP_TAPCELL_ROW_0_30 VGND VPWR sky130_fd_sc_hd__tapvpwrvgnd_1
X_305_ _073_ _075_ VGND VGND VPWR VPWR _077_ sky130_fd_sc_hd__nand2_1
X_236_ net11 _033_ VGND VGND VPWR VPWR net66 sky130_fd_sc_hd__nor2_1
XFILLER_10_50 VGND VGND VPWR VPWR sky130_fd_sc_hd__decap_8
XFILLER_3_223 VGND VGND VPWR VPWR sky130_fd_sc_hd__fill_1
X_219_ _008_ _011_ _017_ _018_ VGND VGND VPWR VPWR _020_ sky130_fd_sc_hd__a211o_1
Xoutput49 net49 VGND VGND VPWR VPWR led_hour[11] sky130_fd_sc_hd__buf_2
Xoutput38 net38 VGND VGND VPWR VPWR led_day[13] sky130_fd_sc_hd__buf_2
XFILLER_0_237 VPWR VGND VPWR VGND sky130_ef_sc_hd__decap_12
XFILLER_7_51 VGND VGND VPWR VPWR sky130_fd_sc_hd__decap_4
XFILLER_12_141 VGND VGND VPWR VPWR sky130_fd_sc_hd__fill_2
XFILLER_8_189 VGND VGND VPWR VPWR sky130_fd_sc_hd__fill_1
XTAP_TAPCELL_ROW_3_52 VGND VPWR sky130_fd_sc_hd__tapvpwrvgnd_1
X_467_ _195_ _197_ VGND VGND VPWR VPWR net63 sky130_fd_sc_hd__nor2_1
XFILLER_4_41 VPWR VGND VPWR VGND sky130_ef_sc_hd__decap_12
XFILLER_4_85 VPWR VGND VPWR VGND sky130_ef_sc_hd__decap_12
XFILLER_4_170 VPWR VGND VPWR VGND sky130_ef_sc_hd__decap_12
X_398_ _134_ _138_ _140_ net30 VGND VGND VPWR VPWR _148_ sky130_fd_sc_hd__o211a_2
X_321_ _080_ _081_ _084_ VGND VGND VPWR VPWR net83 sky130_fd_sc_hd__a21o_1
X_252_ net10 _039_ _037_ VGND VGND VPWR VPWR net51 sky130_fd_sc_hd__a21boi_1
XTAP_TAPCELL_ROW_9_84 VGND VPWR sky130_fd_sc_hd__tapvpwrvgnd_1
XTAP_TAPCELL_ROW_0_31 VGND VPWR sky130_fd_sc_hd__tapvpwrvgnd_1
X_235_ _024_ _027_ VGND VGND VPWR VPWR _033_ sky130_fd_sc_hd__nand2_1
X_304_ net6 _065_ _071_ net47 VGND VGND VPWR VPWR net54 sky130_fd_sc_hd__a31o_1
XFILLER_6_265 VGND VGND VPWR VPWR sky130_fd_sc_hd__fill_1
XFILLER_3_279 VGND VGND VPWR VPWR sky130_fd_sc_hd__fill_1
X_218_ _017_ _018_ VGND VGND VPWR VPWR _019_ sky130_fd_sc_hd__or2_1
Xoutput39 net39 VGND VGND VPWR VPWR led_day[1] sky130_fd_sc_hd__buf_2
XFILLER_0_249 VGND VGND VPWR VPWR sky130_fd_sc_hd__decap_3
XFILLER_5_319 VGND VGND VPWR VPWR sky130_fd_sc_hd__fill_1
XTAP_TAPCELL_ROW_3_53 VGND VPWR sky130_fd_sc_hd__tapvpwrvgnd_1
X_466_ net16 _014_ _193_ _195_ VGND VGND VPWR VPWR net62 sky130_fd_sc_hd__o2bb2a_1
XFILLER_4_182 VPWR VGND VPWR VGND sky130_ef_sc_hd__decap_12
X_397_ _139_ _142_ _144_ _141_ _132_ VGND VGND VPWR VPWR _147_ sky130_fd_sc_hd__a2111o_1
XFILLER_4_53 VPWR VGND VPWR VGND sky130_ef_sc_hd__decap_12
XFILLER_4_97 VPWR VGND VPWR VGND sky130_ef_sc_hd__decap_12
X_320_ net17 _079_ _080_ _083_ VGND VGND VPWR VPWR net82 sky130_fd_sc_hd__o211a_1
X_251_ _042_ net59 VGND VGND VPWR VPWR net49 sky130_fd_sc_hd__nor2_1
XTAP_TAPCELL_ROW_0_32 VGND VPWR sky130_fd_sc_hd__tapvpwrvgnd_1
X_449_ net27 _177_ _183_ _185_ VGND VGND VPWR VPWR net108 sky130_fd_sc_hd__o211a_1
XFILLER_9_274 VGND VGND VPWR VPWR sky130_fd_sc_hd__fill_2
XTAP_TAPCELL_ROW_9_85 VGND VPWR sky130_fd_sc_hd__tapvpwrvgnd_1
X_234_ net11 _024_ _032_ VGND VGND VPWR VPWR net65 sky130_fd_sc_hd__o21ba_1
X_303_ net6 _065_ _070_ VGND VGND VPWR VPWR net53 sky130_fd_sc_hd__and3b_1
XFILLER_6_211 VGND VGND VPWR VPWR sky130_fd_sc_hd__fill_1
XFILLER_10_41 VGND VGND VPWR VPWR sky130_fd_sc_hd__decap_3
XFILLER_3_225 VPWR VGND VPWR VGND sky130_ef_sc_hd__decap_12
X_217_ _009_ _010_ _016_ VGND VGND VPWR VPWR _018_ sky130_fd_sc_hd__a21oi_1
XPHY_EDGE_ROW_11_Left_25 VGND VGND VPWR VPWR sky130_fd_sc_hd__decap_3
XPHY_EDGE_ROW_5_Right_5 VGND VGND VPWR VPWR sky130_fd_sc_hd__decap_3
XTAP_TAPCELL_ROW_3_54 VGND VPWR sky130_fd_sc_hd__tapvpwrvgnd_1
X_465_ _188_ net64 _193_ _194_ VGND VGND VPWR VPWR net73 sky130_fd_sc_hd__nor4_1
XFILLER_5_128 VGND VGND VPWR VPWR sky130_fd_sc_hd__fill_2
X_396_ _139_ _142_ _144_ _141_ _132_ VGND VGND VPWR VPWR _146_ sky130_fd_sc_hd__a2111oi_1
XFILLER_2_109 VPWR VGND VPWR VGND sky130_ef_sc_hd__decap_12
XFILLER_4_65 VPWR VGND VPWR VGND sky130_ef_sc_hd__decap_12
XFILLER_4_194 VGND VGND VPWR VPWR sky130_fd_sc_hd__fill_2
X_250_ net10 _037_ _039_ VGND VGND VPWR VPWR net59 sky130_fd_sc_hd__and3_1
XTAP_TAPCELL_ROW_0_33 VGND VPWR sky130_fd_sc_hd__tapvpwrvgnd_1
X_448_ net27 _177_ _181_ net99 VGND VGND VPWR VPWR net106 sky130_fd_sc_hd__a31o_1
XTAP_TAPCELL_ROW_9_86 VGND VPWR sky130_fd_sc_hd__tapvpwrvgnd_1
X_379_ net31 net28 VGND VGND VPWR VPWR _129_ sky130_fd_sc_hd__nand2_1
XFILLER_11_208 VGND VGND VPWR VPWR sky130_fd_sc_hd__fill_2
X_233_ net11 _024_ _027_ VGND VGND VPWR VPWR _032_ sky130_fd_sc_hd__a21o_1
X_302_ _075_ _076_ VGND VGND VPWR VPWR net52 sky130_fd_sc_hd__nor2_1
XFILLER_1_55 VGND VGND VPWR VPWR sky130_fd_sc_hd__fill_1
XFILLER_3_237 VPWR VGND VPWR VGND sky130_ef_sc_hd__decap_12
X_216_ _009_ _010_ _016_ VGND VGND VPWR VPWR _017_ sky130_fd_sc_hd__and3_1
XFILLER_7_87 VGND VGND VPWR VPWR sky130_fd_sc_hd__fill_1
XPHY_EDGE_ROW_11_Right_11 VGND VGND VPWR VPWR sky130_fd_sc_hd__decap_3
XFILLER_7_192 VGND VGND VPWR VPWR sky130_fd_sc_hd__decap_8
X_464_ _196_ _197_ VGND VGND VPWR VPWR net72 sky130_fd_sc_hd__nor2_1
XFILLER_4_77 VGND VGND VPWR VPWR sky130_fd_sc_hd__decap_6
X_395_ _139_ _142_ _144_ _141_ VGND VGND VPWR VPWR _145_ sky130_fd_sc_hd__a211o_1
X_378_ _123_ _126_ _127_ VGND VGND VPWR VPWR net95 sky130_fd_sc_hd__and3_1
X_447_ net27 _186_ VGND VGND VPWR VPWR net105 sky130_fd_sc_hd__nor2_1
XTAP_TAPCELL_ROW_9_87 VGND VPWR sky130_fd_sc_hd__tapvpwrvgnd_1
XFILLER_9_221 VGND VGND VPWR VPWR sky130_fd_sc_hd__decap_3
XTAP_TAPCELL_ROW_0_34 VGND VPWR sky130_fd_sc_hd__tapvpwrvgnd_1
X_232_ net68 _028_ _031_ VGND VGND VPWR VPWR net60 sky130_fd_sc_hd__and3_1
X_301_ net6 _065_ VGND VGND VPWR VPWR _076_ sky130_fd_sc_hd__nor2_1
XFILLER_6_246 VGND VGND VPWR VPWR sky130_fd_sc_hd__decap_6
XFILLER_3_205 VPWR VGND VPWR VGND sky130_ef_sc_hd__decap_12
XFILLER_3_249 VPWR VGND VPWR VGND sky130_ef_sc_hd__decap_12
XTAP_TAPCELL_ROW_6_66 VGND VPWR sky130_fd_sc_hd__tapvpwrvgnd_1
X_215_ _013_ _015_ VGND VGND VPWR VPWR _016_ sky130_fd_sc_hd__nor2_1
XFILLER_7_55 VGND VGND VPWR VPWR sky130_fd_sc_hd__fill_1
X_463_ net64 _193_ _195_ _197_ VGND VGND VPWR VPWR net71 sky130_fd_sc_hd__a22o_1
XFILLER_4_141 VPWR VGND VPWR VGND sky130_ef_sc_hd__decap_12
X_394_ _134_ _138_ VGND VGND VPWR VPWR _144_ sky130_fd_sc_hd__xor2_1
X_377_ net21 _116_ _123_ _126_ VGND VGND VPWR VPWR net94 sky130_fd_sc_hd__o211a_1
X_446_ _178_ _181_ VGND VGND VPWR VPWR _186_ sky130_fd_sc_hd__or2_1