* NGSPICE file created from clock_century.ext - technology: sky130A

* Black-box entry subcircuit for sky130_ef_sc_hd__decap_12 abstract view
.subckt sky130_ef_sc_hd__decap_12 VPWR VGND VPB VNB
.ends

* Black-box entry subcircuit for sky130_fd_sc_hd__tapvpwrvgnd_1 abstract view
.subckt sky130_fd_sc_hd__tapvpwrvgnd_1 VGND VPWR
.ends

* Black-box entry subcircuit for sky130_fd_sc_hd__decap_6 abstract view
.subckt sky130_fd_sc_hd__decap_6 VGND VNB VPB VPWR
.ends

* Black-box entry subcircuit for sky130_fd_sc_hd__decap_3 abstract view
.subckt sky130_fd_sc_hd__decap_3 VGND VNB VPB VPWR
.ends

* Black-box entry subcircuit for sky130_fd_sc_hd__decap_8 abstract view
.subckt sky130_fd_sc_hd__decap_8 VGND VNB VPB VPWR
.ends

* Black-box entry subcircuit for sky130_fd_sc_hd__diode_2 abstract view
.subckt sky130_fd_sc_hd__diode_2 DIODE VGND VNB VPB VPWR
.ends

* Black-box entry subcircuit for sky130_fd_sc_hd__decap_4 abstract view
.subckt sky130_fd_sc_hd__decap_4 VGND VNB VPB VPWR
.ends

* Black-box entry subcircuit for sky130_fd_sc_hd__fill_1 abstract view
.subckt sky130_fd_sc_hd__fill_1 VGND VNB VPB VPWR
.ends

* Black-box entry subcircuit for sky130_fd_sc_hd__fill_2 abstract view
.subckt sky130_fd_sc_hd__fill_2 VGND VNB VPB VPWR
.ends

* Black-box entry subcircuit for sky130_fd_sc_hd__buf_2 abstract view
.subckt sky130_fd_sc_hd__buf_2 A VGND VNB VPB VPWR X
.ends

* Black-box entry subcircuit for sky130_fd_sc_hd__bufinv_16 abstract view
.subckt sky130_fd_sc_hd__bufinv_16 A VGND VNB VPB VPWR Y
.ends

* Black-box entry subcircuit for decode_day abstract view
.subckt decode_day VGND VPWR am_pm day_num[0] day_num[1] day_num[2] day_num[3] day_num[4]
+ hour_num[0] hour_num[1] hour_num[2] hour_num[3] hour_num[4] month[0] month[1] month[2]
+ month[3] year[0] year[1] year[2] year[3] year[4] year[5] year[6]
.ends

* Black-box entry subcircuit for sky130_fd_sc_hd__clkbuf_16 abstract view
.subckt sky130_fd_sc_hd__clkbuf_16 A VGND VNB VPB VPWR X
.ends

* Black-box entry subcircuit for decode_all abstract view
.subckt decode_all VGND VPWR day[0] day[1] day[2] day[3] day[4] hour[0] hour[1] hour[2]
+ hour[3] hour[4] led_day[0] led_day[10] led_day[11] led_day[12] led_day[13] led_day[1]
+ led_day[2] led_day[3] led_day[4] led_day[5] led_day[6] led_day[7] led_day[8] led_day[9]
+ led_hour[0] led_hour[10] led_hour[11] led_hour[12] led_hour[13] led_hour[1] led_hour[2]
+ led_hour[3] led_hour[4] led_hour[5] led_hour[6] led_hour[7] led_hour[8] led_hour[9]
+ led_min[0] led_min[10] led_min[11] led_min[12] led_min[13] led_min[1] led_min[2]
+ led_min[3] led_min[4] led_min[5] led_min[6] led_min[7] led_min[8] led_min[9] led_month[0]
+ led_month[10] led_month[11] led_month[12] led_month[13] led_month[1] led_month[2]
+ led_month[3] led_month[4] led_month[5] led_month[6] led_month[7] led_month[8] led_month[9]
+ led_sec[0] led_sec[10] led_sec[11] led_sec[12] led_sec[13] led_sec[1] led_sec[2]
+ led_sec[3] led_sec[4] led_sec[5] led_sec[6] led_sec[7] led_sec[8] led_sec[9] led_year[0]
+ led_year[10] led_year[11] led_year[12] led_year[13] led_year[1] led_year[2] led_year[3]
+ led_year[4] led_year[5] led_year[6] led_year[7] led_year[8] led_year[9] minute[0]
+ minute[1] minute[2] minute[3] minute[4] minute[5] month[0] month[1] month[2] month[3]
+ second[0] second[1] second[2] second[3] second[4] second[5] year[0] year[1] year[2]
+ year[3] year[4] year[5] year[6]
.ends

* Black-box entry subcircuit for counter_all abstract view
.subckt counter_all VGND VPWR clk day[0] day[1] day[2] day[3] day[4] day_num[0] day_num[1]
+ day_num[2] day_num[3] day_num[4] dec[0] dec[1] dec[2] dec[3] dec[4] dec[5] done_dec[0]
+ done_dec[1] done_dec[2] done_dec[3] done_dec[4] done_inc[0] done_inc[1] done_inc[2]
+ done_inc[3] done_inc[4] en[0] en[1] en[2] en[3] en[4] en[5] hour[0] hour[1] hour[2]
+ hour[3] hour[4] hour_num[0] hour_num[1] hour_num[2] hour_num[3] hour_num[4] inc[0]
+ inc[1] inc[2] inc[3] inc[4] inc[5] minute[0] minute[1] minute[2] minute[3] minute[4]
+ minute[5] month[0] month[1] month[2] month[3] reset_n second[0] second[1] second[2]
+ second[3] second[4] second[5] year[0] year[1] year[2] year[3] year[4] year[5] year[6]
.ends

* Black-box entry subcircuit for sky130_fd_sc_hd__buf_1 abstract view
.subckt sky130_fd_sc_hd__buf_1 A VGND VNB VPB VPWR X
.ends

* Black-box entry subcircuit for sky130_fd_sc_hd__clkbuf_1 abstract view
.subckt sky130_fd_sc_hd__clkbuf_1 A VGND VNB VPB VPWR X
.ends

* Black-box entry subcircuit for alarm abstract view
.subckt alarm VGND VPWR alarm_hour[0] alarm_hour[1] alarm_hour[2] alarm_hour[3] alarm_hour[4]
+ alarm_i alarm_min[0] alarm_min[1] alarm_min[2] alarm_min[3] alarm_min[4] alarm_min[5]
+ alarm_o clk hour[0] hour[1] hour[2] hour[3] hour[4] minute[0] minute[1] minute[2]
+ minute[3] minute[4] minute[5] rst_n
.ends

* Black-box entry subcircuit for decode_input abstract view
.subckt decode_input VGND VPWR button_dec button_inc dec[0] dec[1] dec[2] dec[3] dec[4]
+ dec[5] done_dec[0] done_dec[1] done_dec[2] done_dec[3] done_dec[4] done_inc[0] done_inc[1]
+ done_inc[2] done_inc[3] done_inc[4] en[0] en[1] en[2] en[3] en[4] en[5] inc[0] inc[1]
+ inc[2] inc[3] inc[4] inc[5] mode[0] mode[1] select[0] select[1] select[2] select[3]
+ select[4] select[5]
.ends

* Black-box entry subcircuit for sky130_fd_sc_hd__clkbuf_4 abstract view
.subckt sky130_fd_sc_hd__clkbuf_4 A VGND VNB VPB VPWR X
.ends

.subckt clock_century VGND VPWR alarm_hour[0] alarm_hour[1] alarm_hour[2] alarm_hour[3]
+ alarm_hour[4] alarm_i alarm_min[0] alarm_min[1] alarm_min[2] alarm_min[3] alarm_min[4]
+ alarm_min[5] alarm_o am_pm button_dec button_inc clk led_day[0] led_day[10] led_day[11]
+ led_day[12] led_day[13] led_day[1] led_day[2] led_day[3] led_day[4] led_day[5] led_day[6]
+ led_day[7] led_day[8] led_day[9] led_hour[0] led_hour[10] led_hour[11] led_hour[12]
+ led_hour[13] led_hour[1] led_hour[2] led_hour[3] led_hour[4] led_hour[5] led_hour[6]
+ led_hour[7] led_hour[8] led_hour[9] led_min[0] led_min[10] led_min[11] led_min[12]
+ led_min[13] led_min[1] led_min[2] led_min[3] led_min[4] led_min[5] led_min[6] led_min[7]
+ led_min[8] led_min[9] led_month[0] led_month[10] led_month[11] led_month[12] led_month[13]
+ led_month[1] led_month[2] led_month[3] led_month[4] led_month[5] led_month[6] led_month[7]
+ led_month[8] led_month[9] led_sec[0] led_sec[10] led_sec[11] led_sec[12] led_sec[13]
+ led_sec[1] led_sec[2] led_sec[3] led_sec[4] led_sec[5] led_sec[6] led_sec[7] led_sec[8]
+ led_sec[9] led_year[0] led_year[10] led_year[11] led_year[12] led_year[13] led_year[1]
+ led_year[2] led_year[3] led_year[4] led_year[5] led_year[6] led_year[7] led_year[8]
+ led_year[9] mode[0] mode[1] reset_n select[0] select[1] select[2] select[3] select[4]
+ select[5]
XFILLER_94_350 VPWR VGND VPWR VGND sky130_ef_sc_hd__decap_12
XFILLER_94_394 VPWR VGND VPWR VGND sky130_ef_sc_hd__decap_12
XFILLER_35_461 VPWR VGND VPWR VGND sky130_ef_sc_hd__decap_12
XFILLER_63_792 VPWR VGND VPWR VGND sky130_ef_sc_hd__decap_12
XFILLER_52_29 VPWR VGND VPWR VGND sky130_ef_sc_hd__decap_12
XTAP_TAPCELL_ROW_33_662 VGND VPWR sky130_fd_sc_hd__tapvpwrvgnd_1
XTAP_TAPCELL_ROW_33_673 VGND VPWR sky130_fd_sc_hd__tapvpwrvgnd_1
XFILLER_10_339 VGND VGND VPWR VPWR sky130_fd_sc_hd__decap_6
XTAP_TAPCELL_ROW_33_684 VGND VPWR sky130_fd_sc_hd__tapvpwrvgnd_1
XFILLER_77_15 VPWR VGND VPWR VGND sky130_ef_sc_hd__decap_12
XFILLER_45_225 VPWR VGND VPWR VGND sky130_ef_sc_hd__decap_12
XFILLER_46_737 VPWR VGND VPWR VGND sky130_ef_sc_hd__decap_12
XFILLER_93_47 VGND VGND VPWR VPWR sky130_fd_sc_hd__decap_3
XFILLER_26_41 VGND VGND VPWR VPWR sky130_fd_sc_hd__decap_8
XFILLER_41_497 VGND VGND VPWR VPWR sky130_fd_sc_hd__decap_6
XTAP_TAPCELL_ROW_14_4_1155 VGND VPWR sky130_fd_sc_hd__tapvpwrvgnd_1
XFILLER_69_818 VPWR VGND VPWR VGND sky130_ef_sc_hd__decap_12
XFILLER_96_637 VGND VGND VPWR VPWR sky130_fd_sc_hd__decap_6
XFILLER_95_125 VPWR VGND VPWR VGND sky130_ef_sc_hd__decap_12
XFILLER_92_810 VGND VGND VPWR VPWR sky130_fd_sc_hd__decap_6
XANTENNA_output56_A net56 VGND VGND VPWR VPWR sky130_fd_sc_hd__diode_2
XFILLER_49_553 VGND VGND VPWR VPWR sky130_fd_sc_hd__decap_6
XFILLER_76_350 VGND VGND VPWR VPWR sky130_fd_sc_hd__decap_4
XFILLER_95_169 VPWR VGND VPWR VGND sky130_ef_sc_hd__decap_12
XFILLER_49_597 VPWR VGND VPWR VGND sky130_ef_sc_hd__decap_12
XFILLER_91_342 VPWR VGND VPWR VGND sky130_ef_sc_hd__decap_12
XPHY_EDGE_ROW_90_1_Left_191 VGND VGND VPWR VPWR sky130_fd_sc_hd__decap_3
XFILLER_99_497 VGND VGND VPWR VPWR sky130_fd_sc_hd__decap_6
XFILLER_101_469 VGND VGND VPWR VPWR sky130_fd_sc_hd__decap_3
XTAP_TAPCELL_ROW_38_754 VGND VPWR sky130_fd_sc_hd__tapvpwrvgnd_1
XPHY_EDGE_ROW_66_3_Left_375 VGND VGND VPWR VPWR sky130_fd_sc_hd__decap_3
XFILLER_63_39 VGND VGND VPWR VPWR sky130_fd_sc_hd__decap_8
XFILLER_43_729 VPWR VGND VPWR VGND sky130_ef_sc_hd__decap_12
XFILLER_36_781 VPWR VGND VPWR VGND sky130_ef_sc_hd__decap_12
XPHY_EDGE_ROW_11_3_Left_260 VGND VGND VPWR VPWR sky130_fd_sc_hd__decap_3
XFILLER_2_357 VGND VGND VPWR VPWR sky130_fd_sc_hd__decap_6
XTAP_TAPCELL_ROW_6_630 VGND VPWR sky130_fd_sc_hd__tapvpwrvgnd_1
XTAP_TAPCELL_ROW_6_641 VGND VPWR sky130_fd_sc_hd__tapvpwrvgnd_1
XFILLER_58_350 VGND VGND VPWR VPWR sky130_fd_sc_hd__decap_4
XFILLER_46_501 VPWR VGND VPWR VGND sky130_ef_sc_hd__decap_12
XFILLER_74_832 VGND VGND VPWR VPWR sky130_fd_sc_hd__fill_1
XFILLER_37_51 VGND VGND VPWR VPWR sky130_fd_sc_hd__decap_4
XFILLER_18_247 VPWR VGND VPWR VGND sky130_ef_sc_hd__decap_12
XFILLER_46_545 VPWR VGND VPWR VGND sky130_ef_sc_hd__decap_12
XFILLER_73_342 VGND VGND VPWR VPWR sky130_fd_sc_hd__decap_8
XFILLER_46_589 VPWR VGND VPWR VGND sky130_ef_sc_hd__decap_12
XFILLER_26_291 VPWR VGND VPWR VGND sky130_ef_sc_hd__decap_12
XFILLER_41_261 VPWR VGND VPWR VGND sky130_ef_sc_hd__decap_12
XTAP_TAPCELL_ROW_97_1030 VGND VPWR sky130_fd_sc_hd__tapvpwrvgnd_1
XFILLER_6_641 VGND VGND VPWR VPWR sky130_fd_sc_hd__decap_3
XFILLER_6_685 VPWR VGND VPWR VGND sky130_ef_sc_hd__decap_12
XPHY_EDGE_ROW_71_3_Right_78 VGND VGND VPWR VPWR sky130_fd_sc_hd__decap_3
XFILLER_96_401 VPWR VGND VPWR VGND sky130_ef_sc_hd__decap_12
XFILLER_96_445 VPWR VGND VPWR VGND sky130_ef_sc_hd__decap_12
XPHY_EDGE_ROW_17_2_Left_214 VGND VGND VPWR VPWR sky130_fd_sc_hd__decap_3
XFILLER_96_489 VPWR VGND VPWR VGND sky130_ef_sc_hd__decap_12
XFILLER_84_618 VPWR VGND VPWR VGND sky130_ef_sc_hd__decap_12
XFILLER_49_361 VPWR VGND VPWR VGND sky130_ef_sc_hd__decap_12
XFILLER_80_802 VPWR VGND VPWR VGND sky130_ef_sc_hd__decap_12
XFILLER_92_662 VPWR VGND VPWR VGND sky130_ef_sc_hd__decap_12
XTAP_TAPCELL_ROW_35_702 VGND VPWR sky130_fd_sc_hd__tapvpwrvgnd_1
XTAP_TAPCELL_ROW_35_713 VGND VPWR sky130_fd_sc_hd__tapvpwrvgnd_1
XFILLER_18_781 VPWR VGND VPWR VGND sky130_ef_sc_hd__decap_12
XTAP_TAPCELL_ROW_19_3_1181 VGND VPWR sky130_fd_sc_hd__tapvpwrvgnd_1
XFILLER_32_283 VGND VGND VPWR VPWR sky130_fd_sc_hd__decap_6
XFILLER_99_261 VPWR VGND VPWR VGND sky130_ef_sc_hd__decap_12
XFILLER_87_434 VPWR VGND VPWR VGND sky130_ef_sc_hd__decap_12
XFILLER_87_478 VPWR VGND VPWR VGND sky130_ef_sc_hd__decap_12
XFILLER_56_832 VGND VGND VPWR VPWR sky130_fd_sc_hd__fill_1
XFILLER_101_277 VGND VGND VPWR VPWR sky130_fd_sc_hd__decap_3
XFILLER_55_342 VPWR VGND VPWR VGND sky130_ef_sc_hd__decap_12
XFILLER_74_27 VGND VGND VPWR VPWR sky130_fd_sc_hd__fill_1
XFILLER_74_49 VGND VGND VPWR VPWR sky130_fd_sc_hd__fill_1
XFILLER_70_312 VGND VGND VPWR VPWR sky130_fd_sc_hd__fill_1
XFILLER_43_559 VGND VGND VPWR VPWR sky130_fd_sc_hd__fill_1
XPHY_EDGE_ROW_73_2_Left_442 VGND VGND VPWR VPWR sky130_fd_sc_hd__decap_3
XFILLER_30_209 VPWR VGND VPWR VGND sky130_ef_sc_hd__decap_12
XFILLER_90_15 VPWR VGND VPWR VGND sky130_ef_sc_hd__decap_12
XFILLER_23_261 VGND VGND VPWR VPWR sky130_fd_sc_hd__fill_1
XFILLER_99_57 VPWR VGND VPWR VGND sky130_ef_sc_hd__decap_12
XFILLER_2_121 VPWR VGND VPWR VGND sky130_ef_sc_hd__decap_12
XFILLER_2_165 VPWR VGND VPWR VGND sky130_ef_sc_hd__decap_12
XFILLER_38_309 VPWR VGND VPWR VGND sky130_ef_sc_hd__decap_12
XFILLER_48_83 VGND VGND VPWR VPWR sky130_fd_sc_hd__fill_1
XFILLER_47_821 VPWR VGND VPWR VGND sky130_ef_sc_hd__decap_12
XFILLER_0_57 VPWR VGND VPWR VGND sky130_ef_sc_hd__decap_12
XFILLER_19_567 VGND VGND VPWR VPWR sky130_fd_sc_hd__decap_4
XFILLER_62_802 VPWR VGND VPWR VGND sky130_ef_sc_hd__decap_12
XFILLER_21_209 VPWR VGND VPWR VGND sky130_ef_sc_hd__decap_12
XFILLER_14_283 VGND VGND VPWR VPWR sky130_fd_sc_hd__decap_6
XFILLER_42_581 VGND VGND VPWR VPWR sky130_fd_sc_hd__decap_6
XFILLER_30_743 VPWR VGND VPWR VGND sky130_ef_sc_hd__decap_12
XTAP_TAPCELL_ROW_40_782 VGND VPWR sky130_fd_sc_hd__tapvpwrvgnd_1
XFILLER_50_3 VPWR VGND VPWR VGND sky130_ef_sc_hd__decap_12
XFILLER_97_721 VGND VGND VPWR VPWR sky130_fd_sc_hd__decap_6
XTAP_TAPCELL_ROW_24_2_1207 VGND VPWR sky130_fd_sc_hd__tapvpwrvgnd_1
XFILLER_97_765 VPWR VGND VPWR VGND sky130_ef_sc_hd__decap_12
XFILLER_96_253 VPWR VGND VPWR VGND sky130_ef_sc_hd__decap_12
XFILLER_84_426 VPWR VGND VPWR VGND sky130_ef_sc_hd__decap_12
XTAP_TAPCELL_ROW_95_999 VGND VPWR sky130_fd_sc_hd__tapvpwrvgnd_1
XTAP_TAPCELL_ROW_95_988 VGND VPWR sky130_fd_sc_hd__tapvpwrvgnd_1
XTAP_TAPCELL_ROW_86_2_1396 VGND VPWR sky130_fd_sc_hd__tapvpwrvgnd_1
XFILLER_25_537 VPWR VGND VPWR VGND sky130_ef_sc_hd__decap_12
XFILLER_52_312 VGND VGND VPWR VPWR sky130_fd_sc_hd__fill_1
XFILLER_12_209 VPWR VGND VPWR VGND sky130_ef_sc_hd__decap_12
XTAP_TAPCELL_ROW_15_4_1160 VGND VPWR sky130_fd_sc_hd__tapvpwrvgnd_1
XFILLER_60_29 VPWR VGND VPWR VGND sky130_ef_sc_hd__decap_12
XFILLER_4_419 VGND VGND VPWR VPWR sky130_fd_sc_hd__fill_1
XFILLER_69_27 VPWR VGND VPWR VGND sky130_ef_sc_hd__decap_12
XPHY_EDGE_ROW_53_1_Left_154 VGND VGND VPWR VPWR sky130_fd_sc_hd__decap_3
XFILLER_0_636 VGND VGND VPWR VPWR sky130_fd_sc_hd__fill_2
XFILLER_88_754 VGND VGND VPWR VPWR sky130_fd_sc_hd__decap_6
XFILLER_0_669 VGND VGND VPWR VPWR sky130_fd_sc_hd__decap_3
XFILLER_85_15 VPWR VGND VPWR VGND sky130_ef_sc_hd__decap_12
XFILLER_88_798 VPWR VGND VPWR VGND sky130_ef_sc_hd__decap_12
XFILLER_29_821 VPWR VGND VPWR VGND sky130_ef_sc_hd__decap_12
XFILLER_90_418 VGND VGND VPWR VPWR sky130_fd_sc_hd__decap_6
XFILLER_28_353 VGND VGND VPWR VPWR sky130_fd_sc_hd__fill_1
XFILLER_44_813 VPWR VGND VPWR VGND sky130_ef_sc_hd__decap_12
XFILLER_16_537 VGND VGND VPWR VPWR sky130_fd_sc_hd__fill_1
XFILLER_34_41 VPWR VGND VPWR VGND sky130_ef_sc_hd__decap_12
XFILLER_34_85 VPWR VGND VPWR VGND sky130_ef_sc_hd__decap_12
XFILLER_11_275 VPWR VGND VPWR VGND sky130_ef_sc_hd__decap_12
XTAP_TAPCELL_ROW_30_2_1239 VGND VPWR sky130_fd_sc_hd__tapvpwrvgnd_1
XFILLER_7_257 VGND VGND VPWR VPWR sky130_fd_sc_hd__decap_4
XFILLER_8_769 VPWR VGND VPWR VGND sky130_ef_sc_hd__decap_12
XFILLER_50_95 VGND VGND VPWR VPWR sky130_fd_sc_hd__decap_4
XFILLER_3_441 VGND VGND VPWR VPWR sky130_fd_sc_hd__decap_6
XFILLER_3_485 VPWR VGND VPWR VGND sky130_ef_sc_hd__decap_12
XFILLER_79_776 VPWR VGND VPWR VGND sky130_ef_sc_hd__decap_12
XFILLER_39_629 VPWR VGND VPWR VGND sky130_ef_sc_hd__decap_12
XFILLER_19_331 VPWR VGND VPWR VGND sky130_ef_sc_hd__decap_12
XFILLER_38_139 VGND VGND VPWR VPWR sky130_fd_sc_hd__fill_1
XFILLER_47_673 VPWR VGND VPWR VGND sky130_ef_sc_hd__decap_12
XFILLER_34_301 VGND VGND VPWR VPWR sky130_fd_sc_hd__decap_6
XFILLER_34_345 VPWR VGND VPWR VGND sky130_ef_sc_hd__decap_12
XTAP_TAPCELL_ROW_45_852 VGND VPWR sky130_fd_sc_hd__tapvpwrvgnd_1
XTAP_TAPCELL_ROW_45_863 VGND VPWR sky130_fd_sc_hd__tapvpwrvgnd_1
XFILLER_34_389 VPWR VGND VPWR VGND sky130_ef_sc_hd__decap_12
XFILLER_98_3 VPWR VGND VPWR VGND sky130_ef_sc_hd__decap_12
XFILLER_30_551 VPWR VGND VPWR VGND sky130_ef_sc_hd__decap_12
XPHY_EDGE_ROW_75_3_Left_384 VGND VGND VPWR VPWR sky130_fd_sc_hd__decap_3
XFILLER_85_702 VPWR VGND VPWR VGND sky130_ef_sc_hd__decap_12
XFILLER_97_573 VPWR VGND VPWR VGND sky130_ef_sc_hd__decap_12
XFILLER_85_746 VPWR VGND VPWR VGND sky130_ef_sc_hd__decap_12
XFILLER_26_813 VPWR VGND VPWR VGND sky130_ef_sc_hd__decap_12
XFILLER_44_109 VPWR VGND VPWR VGND sky130_ef_sc_hd__decap_12
XFILLER_93_790 VPWR VGND VPWR VGND sky130_ef_sc_hd__decap_12
XFILLER_37_161 VGND VGND VPWR VPWR sky130_fd_sc_hd__decap_6
XFILLER_71_39 VGND VGND VPWR VPWR sky130_fd_sc_hd__decap_8
XTAP_TAPCELL_ROW_62_3_1284 VGND VPWR sky130_fd_sc_hd__tapvpwrvgnd_1
XTAP_TAPCELL_ROW_88_2_1415 VGND VPWR sky130_fd_sc_hd__tapvpwrvgnd_1
XFILLER_88_562 VPWR VGND VPWR VGND sky130_ef_sc_hd__decap_12
XFILLER_0_433 VGND VGND VPWR VPWR sky130_fd_sc_hd__fill_2
XANTENNA_decode_all_inst_hour[3] hour\[3\] VGND VGND VPWR VPWR sky130_fd_sc_hd__diode_2
XANTENNA_input18_A reset_n VGND VGND VPWR VPWR sky130_fd_sc_hd__diode_2
XFILLER_16_345 VGND VGND VPWR VPWR sky130_fd_sc_hd__fill_1
XFILLER_32_805 VGND VGND VPWR VPWR sky130_fd_sc_hd__decap_6
XFILLER_45_51 VGND VGND VPWR VPWR sky130_fd_sc_hd__decap_4
XFILLER_44_643 VGND VGND VPWR VPWR sky130_fd_sc_hd__fill_1
XTAP_TAPCELL_ROW_42_811 VGND VPWR sky130_fd_sc_hd__tapvpwrvgnd_1
XPHY_EDGE_ROW_80_3_Right_87 VGND VGND VPWR VPWR sky130_fd_sc_hd__decap_3
XPHY_EDGE_ROW_26_2_Left_223 VGND VGND VPWR VPWR sky130_fd_sc_hd__decap_3
XFILLER_12_551 VPWR VGND VPWR VGND sky130_ef_sc_hd__decap_12
XFILLER_3_293 VPWR VGND VPWR VGND sky130_ef_sc_hd__decap_12
XFILLER_100_309 VPWR VGND VPWR VGND sky130_ef_sc_hd__decap_12
XFILLER_13_3 VPWR VGND VPWR VGND sky130_ef_sc_hd__decap_12
XFILLER_67_768 VPWR VGND VPWR VGND sky130_ef_sc_hd__decap_12
XFILLER_90_760 VGND VGND VPWR VPWR sky130_fd_sc_hd__fill_1
XFILLER_35_665 VGND VGND VPWR VPWR sky130_fd_sc_hd__decap_6
XFILLER_22_315 VPWR VGND VPWR VGND sky130_ef_sc_hd__decap_12
XFILLER_34_153 VPWR VGND VPWR VGND sky130_ef_sc_hd__decap_12
XFILLER_50_613 VGND VGND VPWR VPWR sky130_fd_sc_hd__decap_3
XFILLER_34_197 VPWR VGND VPWR VGND sky130_ef_sc_hd__decap_12
XFILLER_50_657 VPWR VGND VPWR VGND sky130_ef_sc_hd__decap_12
XTAP_TAPCELL_ROW_94_2_1469 VGND VPWR sky130_fd_sc_hd__tapvpwrvgnd_1
XPHY_EDGE_ROW_82_2_Left_451 VGND VGND VPWR VPWR sky130_fd_sc_hd__decap_3
XFILLER_85_510 VPWR VGND VPWR VGND sky130_ef_sc_hd__decap_12
XFILLER_58_768 VGND VGND VPWR VPWR sky130_fd_sc_hd__decap_8
XFILLER_45_429 VPWR VGND VPWR VGND sky130_ef_sc_hd__decap_12
XFILLER_66_790 VPWR VGND VPWR VGND sky130_ef_sc_hd__decap_12
XFILLER_14_805 VGND VGND VPWR VPWR sky130_fd_sc_hd__decap_6
XFILLER_82_27 VGND VGND VPWR VPWR sky130_fd_sc_hd__fill_1
XFILLER_82_49 VGND VGND VPWR VPWR sky130_fd_sc_hd__fill_1
XFILLER_9_319 VPWR VGND VPWR VGND sky130_ef_sc_hd__decap_12
XFILLER_40_189 VGND VGND VPWR VPWR sky130_fd_sc_hd__decap_6
XFILLER_5_503 VGND VGND VPWR VPWR sky130_fd_sc_hd__fill_1
Xoutput42 net42 VGND VGND VPWR VPWR led_hour[11] sky130_fd_sc_hd__buf_2
Xoutput31 net31 VGND VGND VPWR VPWR led_day[1] sky130_fd_sc_hd__buf_2
Xoutput53 net53 VGND VGND VPWR VPWR led_hour[9] sky130_fd_sc_hd__buf_2
XTAP_TAPCELL_ROW_25_2_1212 VGND VPWR sky130_fd_sc_hd__tapvpwrvgnd_1
XFILLER_1_753 VPWR VGND VPWR VGND sky130_ef_sc_hd__decap_12
Xoutput64 net64 VGND VGND VPWR VPWR led_min[6] sky130_fd_sc_hd__buf_2
Xoutput75 net75 VGND VGND VPWR VPWR led_month[3] sky130_fd_sc_hd__buf_2
Xoutput97 net97 VGND VGND VPWR VPWR led_year[10] sky130_fd_sc_hd__buf_2
Xoutput86 net86 VGND VGND VPWR VPWR led_sec[13] sky130_fd_sc_hd__buf_2
XFILLER_88_370 VPWR VGND VPWR VGND sky130_ef_sc_hd__decap_12
XPHY_EDGE_ROW_16_1_Left_117 VGND VGND VPWR VPWR sky130_fd_sc_hd__decap_3
XFILLER_1_797 VPWR VGND VPWR VGND sky130_ef_sc_hd__decap_12
XFILLER_91_502 VGND VGND VPWR VPWR sky130_fd_sc_hd__decap_6
XFILLER_48_245 VGND VGND VPWR VPWR sky130_fd_sc_hd__decap_6
XFILLER_91_546 VPWR VGND VPWR VGND sky130_ef_sc_hd__decap_12
XTAP_TAPCELL_ROW_4_591 VGND VPWR sky130_fd_sc_hd__tapvpwrvgnd_1
XFILLER_98_189 VGND VGND VPWR VPWR sky130_fd_sc_hd__decap_6
XFILLER_95_841 VGND VGND VPWR VPWR sky130_fd_sc_hd__fill_1
XFILLER_39_223 VGND VGND VPWR VPWR sky130_fd_sc_hd__fill_1
XFILLER_100_139 VGND VGND VPWR VPWR sky130_fd_sc_hd__fill_1
XFILLER_94_362 VGND VGND VPWR VPWR sky130_fd_sc_hd__decap_6
XPHY_EDGE_ROW_37_Right_11 VGND VGND VPWR VPWR sky130_fd_sc_hd__decap_3
XFILLER_35_473 VPWR VGND VPWR VGND sky130_ef_sc_hd__decap_12
XFILLER_50_421 VPWR VGND VPWR VGND sky130_ef_sc_hd__decap_12
XPHY_EDGE_ROW_99_Left_200 VGND VGND VPWR VPWR sky130_fd_sc_hd__decap_3
XTAP_TAPCELL_ROW_33_663 VGND VPWR sky130_fd_sc_hd__tapvpwrvgnd_1
XPHY_EDGE_ROW_62_1_Left_163 VGND VGND VPWR VPWR sky130_fd_sc_hd__decap_3
XTAP_TAPCELL_ROW_33_674 VGND VPWR sky130_fd_sc_hd__tapvpwrvgnd_1
XTAP_TAPCELL_ROW_33_685 VGND VPWR sky130_fd_sc_hd__tapvpwrvgnd_1
XPHY_EDGE_ROW_46_Right_20 VGND VGND VPWR VPWR sky130_fd_sc_hd__decap_3
XFILLER_77_27 VPWR VGND VPWR VGND sky130_ef_sc_hd__decap_12
XFILLER_86_830 VGND VGND VPWR VPWR sky130_fd_sc_hd__decap_6
XFILLER_85_340 VGND VGND VPWR VPWR sky130_fd_sc_hd__fill_1
XFILLER_93_15 VPWR VGND VPWR VGND sky130_ef_sc_hd__decap_12
XFILLER_46_749 VGND VGND VPWR VPWR sky130_fd_sc_hd__decap_6
XTAP_TAPCELL_ROW_1_550 VGND VPWR sky130_fd_sc_hd__tapvpwrvgnd_1
XFILLER_45_237 VPWR VGND VPWR VGND sky130_ef_sc_hd__decap_12
XFILLER_42_41 VPWR VGND VPWR VGND sky130_ef_sc_hd__decap_12
XFILLER_10_841 VGND VGND VPWR VPWR sky130_fd_sc_hd__fill_1
XTAP_TAPCELL_ROW_14_4_1156 VGND VPWR sky130_fd_sc_hd__tapvpwrvgnd_1
XFILLER_42_85 VPWR VGND VPWR VGND sky130_ef_sc_hd__decap_12
XFILLER_1_561 VPWR VGND VPWR VGND sky130_ef_sc_hd__decap_12
XFILLER_77_830 VGND VGND VPWR VPWR sky130_fd_sc_hd__decap_8
XFILLER_89_690 VPWR VGND VPWR VGND sky130_ef_sc_hd__decap_12
XFILLER_3_57 VPWR VGND VPWR VGND sky130_ef_sc_hd__decap_12
XFILLER_95_137 VGND VGND VPWR VPWR sky130_fd_sc_hd__decap_3
XFILLER_37_727 VGND VGND VPWR VPWR sky130_fd_sc_hd__fill_1
XFILLER_91_354 VPWR VGND VPWR VGND sky130_ef_sc_hd__decap_12
XFILLER_91_398 VPWR VGND VPWR VGND sky130_ef_sc_hd__decap_12
XFILLER_80_3 VPWR VGND VPWR VGND sky130_ef_sc_hd__decap_12
XTAP_TAPCELL_ROW_75_3_1317 VGND VPWR sky130_fd_sc_hd__tapvpwrvgnd_1
XTAP_TAPCELL_ROW_89_2_1420 VGND VPWR sky130_fd_sc_hd__tapvpwrvgnd_1
XFILLER_67_340 VGND VGND VPWR VPWR sky130_fd_sc_hd__fill_1
XTAP_TAPCELL_ROW_38_755 VGND VPWR sky130_fd_sc_hd__tapvpwrvgnd_1
XTAP_TAPCELL_ROW_20_4_1188 VGND VPWR sky130_fd_sc_hd__tapvpwrvgnd_1
XFILLER_35_281 VPWR VGND VPWR VGND sky130_ef_sc_hd__decap_12
XFILLER_36_793 VPWR VGND VPWR VGND sky130_ef_sc_hd__decap_12
XFILLER_50_251 VGND VGND VPWR VPWR sky130_fd_sc_hd__fill_1
XFILLER_51_752 VPWR VGND VPWR VGND sky130_ef_sc_hd__decap_12
XFILLER_88_15 VPWR VGND VPWR VGND sky130_ef_sc_hd__decap_12
XTAP_TAPCELL_ROW_6_620 VGND VPWR sky130_fd_sc_hd__tapvpwrvgnd_1
XTAP_TAPCELL_ROW_6_631 VGND VPWR sky130_fd_sc_hd__tapvpwrvgnd_1
XTAP_TAPCELL_ROW_6_642 VGND VPWR sky130_fd_sc_hd__tapvpwrvgnd_1
XFILLER_59_830 VGND VGND VPWR VPWR sky130_fd_sc_hd__decap_6
XFILLER_46_513 VPWR VGND VPWR VGND sky130_ef_sc_hd__decap_12
XFILLER_18_259 VPWR VGND VPWR VGND sky130_ef_sc_hd__decap_12
XFILLER_46_557 VPWR VGND VPWR VGND sky130_ef_sc_hd__decap_12
XFILLER_41_273 VGND VGND VPWR VPWR sky130_fd_sc_hd__decap_6
XTAP_TAPCELL_ROW_97_1031 VGND VPWR sky130_fd_sc_hd__tapvpwrvgnd_1
XFILLER_6_697 VGND VGND VPWR VPWR sky130_fd_sc_hd__decap_3
XFILLER_96_413 VGND VGND VPWR VPWR sky130_fd_sc_hd__decap_6
XFILLER_96_457 VPWR VGND VPWR VGND sky130_ef_sc_hd__decap_12
XFILLER_1_391 VGND VGND VPWR VPWR sky130_fd_sc_hd__fill_1
XFILLER_49_373 VPWR VGND VPWR VGND sky130_ef_sc_hd__decap_12
XFILLER_92_630 VPWR VGND VPWR VGND sky130_ef_sc_hd__decap_12
XFILLER_80_814 VPWR VGND VPWR VGND sky130_ef_sc_hd__decap_12
XFILLER_92_674 VPWR VGND VPWR VGND sky130_ef_sc_hd__decap_12
XTAP_TAPCELL_ROW_35_703 VGND VPWR sky130_fd_sc_hd__tapvpwrvgnd_1
XTAP_TAPCELL_ROW_35_714 VGND VPWR sky130_fd_sc_hd__tapvpwrvgnd_1
XFILLER_18_793 VPWR VGND VPWR VGND sky130_ef_sc_hd__decap_12
XFILLER_33_741 VPWR VGND VPWR VGND sky130_ef_sc_hd__decap_12
XFILLER_33_785 VPWR VGND VPWR VGND sky130_ef_sc_hd__decap_12
XPHY_EDGE_ROW_91_2_Left_460 VGND VGND VPWR VPWR sky130_fd_sc_hd__decap_3
XFILLER_58_29 VPWR VGND VPWR VGND sky130_ef_sc_hd__decap_12
XFILLER_87_446 VGND VGND VPWR VPWR sky130_fd_sc_hd__decap_6
XFILLER_99_273 VGND VGND VPWR VPWR sky130_fd_sc_hd__decap_6
XPHY_EDGE_ROW_29_4_Right_54 VGND VGND VPWR VPWR sky130_fd_sc_hd__decap_3
XFILLER_43_505 VPWR VGND VPWR VGND sky130_ef_sc_hd__decap_12
XFILLER_90_27 VGND VGND VPWR VPWR sky130_fd_sc_hd__fill_1
XFILLER_90_49 VGND VGND VPWR VPWR sky130_fd_sc_hd__fill_1
XPHY_EDGE_ROW_25_1_Left_126 VGND VGND VPWR VPWR sky130_fd_sc_hd__decap_3
XFILLER_99_69 VPWR VGND VPWR VGND sky130_ef_sc_hd__decap_12
XFILLER_2_133 VGND VGND VPWR VPWR sky130_fd_sc_hd__decap_6
XFILLER_2_177 VPWR VGND VPWR VGND sky130_ef_sc_hd__decap_12
XFILLER_19_513 VPWR VGND VPWR VGND sky130_ef_sc_hd__decap_12
XFILLER_47_833 VGND VGND VPWR VPWR sky130_fd_sc_hd__decap_6
XPHY_EDGE_ROW_16_4_Left_317 VGND VGND VPWR VPWR sky130_fd_sc_hd__decap_3
XFILLER_46_321 VPWR VGND VPWR VGND sky130_ef_sc_hd__decap_12
XFILLER_0_69 VPWR VGND VPWR VGND sky130_ef_sc_hd__decap_12
XFILLER_46_365 VPWR VGND VPWR VGND sky130_ef_sc_hd__decap_12
XFILLER_62_814 VPWR VGND VPWR VGND sky130_ef_sc_hd__decap_12
XFILLER_15_785 VPWR VGND VPWR VGND sky130_ef_sc_hd__decap_12
XFILLER_30_755 VGND VGND VPWR VPWR sky130_fd_sc_hd__fill_1
XTAP_TAPCELL_ROW_101_1090 VGND VPWR sky130_fd_sc_hd__tapvpwrvgnd_1
XTAP_TAPCELL_ROW_40_783 VGND VPWR sky130_fd_sc_hd__tapvpwrvgnd_1
XFILLER_6_461 VPWR VGND VPWR VGND sky130_ef_sc_hd__decap_12
XFILLER_43_3 VPWR VGND VPWR VGND sky130_ef_sc_hd__decap_12
XTAP_TAPCELL_ROW_24_2_1208 VGND VPWR sky130_fd_sc_hd__tapvpwrvgnd_1
XFILLER_96_221 VPWR VGND VPWR VGND sky130_ef_sc_hd__decap_12
XFILLER_97_777 VGND VGND VPWR VPWR sky130_fd_sc_hd__decap_6
XPHY_EDGE_ROW_71_1_Left_172 VGND VGND VPWR VPWR sky130_fd_sc_hd__decap_3
XFILLER_38_811 VGND VGND VPWR VPWR sky130_fd_sc_hd__fill_1
XFILLER_96_265 VPWR VGND VPWR VGND sky130_ef_sc_hd__decap_12
XFILLER_84_438 VPWR VGND VPWR VGND sky130_ef_sc_hd__decap_12
XFILLER_49_181 VPWR VGND VPWR VGND sky130_ef_sc_hd__decap_12
XTAP_TAPCELL_ROW_95_978 VGND VPWR sky130_fd_sc_hd__tapvpwrvgnd_1
XTAP_TAPCELL_ROW_95_989 VGND VPWR sky130_fd_sc_hd__tapvpwrvgnd_1
XTAP_TAPCELL_ROW_86_2_1397 VGND VPWR sky130_fd_sc_hd__tapvpwrvgnd_1
XFILLER_92_482 VPWR VGND VPWR VGND sky130_ef_sc_hd__decap_12
XFILLER_25_549 VPWR VGND VPWR VGND sky130_ef_sc_hd__decap_12
XFILLER_100_15 VPWR VGND VPWR VGND sky130_ef_sc_hd__decap_12
XFILLER_20_221 VPWR VGND VPWR VGND sky130_ef_sc_hd__decap_12
XFILLER_21_733 VPWR VGND VPWR VGND sky130_ef_sc_hd__decap_12
XTAP_TAPCELL_ROW_15_4_1161 VGND VPWR sky130_fd_sc_hd__tapvpwrvgnd_1
XFILLER_69_39 VGND VGND VPWR VPWR sky130_fd_sc_hd__decap_8
XFILLER_0_615 VGND VGND VPWR VPWR sky130_fd_sc_hd__fill_1
XFILLER_85_27 VPWR VGND VPWR VGND sky130_ef_sc_hd__decap_12
XFILLER_29_833 VGND VGND VPWR VPWR sky130_fd_sc_hd__decap_6
XFILLER_44_825 VPWR VGND VPWR VGND sky130_ef_sc_hd__decap_12
XFILLER_43_335 VGND VGND VPWR VPWR sky130_fd_sc_hd__fill_1
XFILLER_34_53 VPWR VGND VPWR VGND sky130_ef_sc_hd__decap_12
XFILLER_11_221 VPWR VGND VPWR VGND sky130_ef_sc_hd__decap_12
XFILLER_34_97 VPWR VGND VPWR VGND sky130_ef_sc_hd__decap_12
XFILLER_12_733 VPWR VGND VPWR VGND sky130_ef_sc_hd__decap_12
XFILLER_11_287 VPWR VGND VPWR VGND sky130_ef_sc_hd__decap_12
XFILLER_50_41 VPWR VGND VPWR VGND sky130_ef_sc_hd__decap_12
XFILLER_50_85 VGND VGND VPWR VPWR sky130_fd_sc_hd__decap_8
XFILLER_3_497 VGND VGND VPWR VPWR sky130_fd_sc_hd__decap_6
XFILLER_79_788 VPWR VGND VPWR VGND sky130_ef_sc_hd__decap_12
XFILLER_47_641 VPWR VGND VPWR VGND sky130_ef_sc_hd__decap_12
XFILLER_19_343 VGND VGND VPWR VPWR sky130_fd_sc_hd__decap_8
XTAP_TAPCELL_ROW_21_4_1193 VGND VPWR sky130_fd_sc_hd__tapvpwrvgnd_1
XFILLER_47_685 VPWR VGND VPWR VGND sky130_ef_sc_hd__decap_12
XPHY_EDGE_ROW_52_3_Right_59 VGND VGND VPWR VPWR sky130_fd_sc_hd__decap_3
XFILLER_34_357 VGND VGND VPWR VPWR sky130_fd_sc_hd__decap_6
XTAP_TAPCELL_ROW_45_853 VGND VPWR sky130_fd_sc_hd__tapvpwrvgnd_1
XFILLER_46_195 VGND VGND VPWR VPWR sky130_fd_sc_hd__fill_1
XTAP_TAPCELL_ROW_45_864 VGND VPWR sky130_fd_sc_hd__tapvpwrvgnd_1
XFILLER_30_563 VGND VGND VPWR VPWR sky130_fd_sc_hd__decap_8
XFILLER_89_508 VGND VGND VPWR VPWR sky130_fd_sc_hd__fill_1
XFILLER_97_541 VPWR VGND VPWR VGND sky130_ef_sc_hd__decap_12
XFILLER_97_585 VPWR VGND VPWR VGND sky130_ef_sc_hd__decap_12
XFILLER_85_714 VPWR VGND VPWR VGND sky130_ef_sc_hd__decap_12
XFILLER_85_758 VPWR VGND VPWR VGND sky130_ef_sc_hd__decap_12
XFILLER_26_825 VPWR VGND VPWR VGND sky130_ef_sc_hd__decap_12
XFILLER_41_839 VGND VGND VPWR VPWR sky130_fd_sc_hd__fill_1
XFILLER_5_729 VPWR VGND VPWR VGND sky130_ef_sc_hd__decap_12
XPHY_EDGE_ROW_54_2_Left_423 VGND VGND VPWR VPWR sky130_fd_sc_hd__decap_3
XTAP_TAPCELL_ROW_62_3_1285 VGND VPWR sky130_fd_sc_hd__tapvpwrvgnd_1
XFILLER_0_412 VGND VGND VPWR VPWR sky130_fd_sc_hd__fill_2
XFILLER_96_15 VPWR VGND VPWR VGND sky130_ef_sc_hd__decap_12
XTAP_TAPCELL_ROW_88_2_1416 VGND VPWR sky130_fd_sc_hd__tapvpwrvgnd_1
XFILLER_88_530 VGND VGND VPWR VPWR sky130_fd_sc_hd__decap_6
XFILLER_29_20 VPWR VGND VPWR VGND sky130_ef_sc_hd__decap_12
XFILLER_88_574 VPWR VGND VPWR VGND sky130_ef_sc_hd__decap_12
XANTENNA_decode_all_inst_hour[2] hour\[2\] VGND VGND VPWR VPWR sky130_fd_sc_hd__diode_2
XFILLER_83_290 VPWR VGND VPWR VGND sky130_ef_sc_hd__decap_12
XTAP_TAPCELL_ROW_42_812 VGND VPWR sky130_fd_sc_hd__tapvpwrvgnd_1
XFILLER_44_699 VGND VGND VPWR VPWR sky130_fd_sc_hd__fill_1
XFILLER_12_563 VGND VGND VPWR VPWR sky130_fd_sc_hd__decap_8
XFILLER_6_57 VPWR VGND VPWR VGND sky130_ef_sc_hd__decap_12
XFILLER_99_839 VGND VGND VPWR VPWR sky130_fd_sc_hd__fill_1
XANTENNA_output79_A net79 VGND VGND VPWR VPWR sky130_fd_sc_hd__diode_2
XFILLER_3_261 VPWR VGND VPWR VGND sky130_ef_sc_hd__decap_12
XFILLER_39_405 VPWR VGND VPWR VGND sky130_ef_sc_hd__decap_12
XFILLER_39_449 VPWR VGND VPWR VGND sky130_ef_sc_hd__decap_12
XFILLER_82_706 VPWR VGND VPWR VGND sky130_ef_sc_hd__decap_12
XFILLER_34_121 VPWR VGND VPWR VGND sky130_ef_sc_hd__decap_12
XFILLER_74_290 VPWR VGND VPWR VGND sky130_ef_sc_hd__decap_12
XFILLER_34_165 VPWR VGND VPWR VGND sky130_ef_sc_hd__decap_12
XFILLER_23_839 VGND VGND VPWR VPWR sky130_fd_sc_hd__fill_1
XFILLER_22_327 VPWR VGND VPWR VGND sky130_ef_sc_hd__decap_12
XFILLER_50_669 VGND VGND VPWR VPWR sky130_fd_sc_hd__decap_3
XPHY_EDGE_ROW_6_Right_6 VGND VGND VPWR VPWR sky130_fd_sc_hd__decap_3
XTAP_TAPCELL_ROW_74_2_1313 VGND VPWR sky130_fd_sc_hd__tapvpwrvgnd_1
XFILLER_100_811 VGND VGND VPWR VPWR sky130_fd_sc_hd__fill_1
XFILLER_97_393 VPWR VGND VPWR VGND sky130_ef_sc_hd__decap_12