*SPEF "ieee 1481-1999"
*DESIGN "decode_day"
*DATE "20:14:34 Thursday January 15, 2026"
*VENDOR "The OpenROAD Project"
*PROGRAM "OpenROAD"
*VERSION "edf00dff99f6c40d67a30c0e22a8191c5d2ed9d6"
*DESIGN_FLOW "NAME_SCOPE LOCAL" "PIN_CAP NONE"
*DIVIDER /
*DELIMITER :
*BUS_DELIMITER []
*T_UNIT 1 NS
*C_UNIT 1 PF
*R_UNIT 1 OHM
*L_UNIT 1 HENRY

*NAME_MAP
*3 am_pm
*4 day_num[0]
*5 day_num[1]
*6 net14
*7 net15
*8 net16
*9 net12
*10 net13
*11 hour_num[2]
*12 net17
*13 hour_num[4]
*14 month[0]
*15 month[1]
*16 month[2]
*17 month[3]
*18 year[0]
*19 year[1]
*20 year[2]
*21 year[3]
*22 year[4]
*23 year[5]
*24 year[6]
*25 _00_
*26 _01_
*27 _02_
*28 _03_
*29 net1
*30 net10
*31 net11
*32 net2
*33 net3
*34 net4
*35 net5
*36 net6
*37 net7
*38 net8
*39 net9
*40 FILLER_0_12
*41 FILLER_0_21
*42 FILLER_0_27
*43 FILLER_0_32
*44 FILLER_0_41
*45 FILLER_0_47
*46 FILLER_0_51
*47 FILLER_0_55
*48 FILLER_0_57
*49 FILLER_0_61
*50 FILLER_0_67
*51 FILLER_0_7
*52 FILLER_0_75
*53 FILLER_1_15
*54 FILLER_1_27
*55 FILLER_1_3
*56 FILLER_1_39
*57 FILLER_1_51
*58 FILLER_1_55
*59 FILLER_1_57
*60 FILLER_1_69
*61 FILLER_1_77
*62 FILLER_2_15
*63 FILLER_2_27
*64 FILLER_2_29
*65 FILLER_2_3
*66 FILLER_2_41
*67 FILLER_2_53
*68 FILLER_2_65
*69 FILLER_2_77
*70 FILLER_3_15
*71 FILLER_3_27
*72 FILLER_3_3
*73 FILLER_3_39
*74 FILLER_3_51
*75 FILLER_3_55
*76 FILLER_3_57
*77 FILLER_3_69
*78 FILLER_4_15
*79 FILLER_4_27
*80 FILLER_4_29
*81 FILLER_4_3
*82 FILLER_4_41
*83 FILLER_4_53
*84 FILLER_4_65
*85 FILLER_4_77
*86 FILLER_5_15
*87 FILLER_5_27
*88 FILLER_5_3
*89 FILLER_5_39
*90 FILLER_5_51
*91 FILLER_5_55
*92 FILLER_5_57
*93 FILLER_5_69
*94 FILLER_6_15
*95 FILLER_6_27
*96 FILLER_6_29
*97 FILLER_6_3
*98 FILLER_6_41
*99 FILLER_6_53
*100 FILLER_6_65
*101 FILLER_6_77
*102 FILLER_7_15
*103 FILLER_7_27
*104 FILLER_7_3
*105 FILLER_7_39
*106 FILLER_7_51
*107 FILLER_7_55
*108 FILLER_7_57
*109 FILLER_7_69
*110 FILLER_8_15
*111 FILLER_8_27
*112 FILLER_8_29
*113 FILLER_8_3
*114 FILLER_8_41
*115 FILLER_8_47
*116 FILLER_8_54
*117 FILLER_8_58
*118 FILLER_8_70
*119 FILLER_8_78
*120 FILLER_9_14
*121 FILLER_9_18
*122 FILLER_9_23
*123 FILLER_9_27
*124 FILLER_9_29
*125 FILLER_9_41
*126 FILLER_9_47
*127 FILLER_9_69
*128 FILLER_9_77
*129 FILLER_9_9
*130 PHY_EDGE_ROW_0_Left_10
*131 PHY_EDGE_ROW_0_Right_0
*132 PHY_EDGE_ROW_1_Left_11
*133 PHY_EDGE_ROW_1_Right_1
*134 PHY_EDGE_ROW_2_Left_12
*135 PHY_EDGE_ROW_2_Right_2
*136 PHY_EDGE_ROW_3_Left_13
*137 PHY_EDGE_ROW_3_Right_3
*138 PHY_EDGE_ROW_4_Left_14
*139 PHY_EDGE_ROW_4_Right_4
*140 PHY_EDGE_ROW_5_Left_15
*141 PHY_EDGE_ROW_5_Right_5
*142 PHY_EDGE_ROW_6_Left_16
*143 PHY_EDGE_ROW_6_Right_6
*144 PHY_EDGE_ROW_7_Left_17
*145 PHY_EDGE_ROW_7_Right_7
*146 PHY_EDGE_ROW_8_Left_18
*147 PHY_EDGE_ROW_8_Right_8
*148 PHY_EDGE_ROW_9_Left_19
*149 PHY_EDGE_ROW_9_Right_9
*150 TAP_TAPCELL_ROW_0_20
*151 TAP_TAPCELL_ROW_0_21
*152 TAP_TAPCELL_ROW_1_22
*153 TAP_TAPCELL_ROW_2_23
*154 TAP_TAPCELL_ROW_3_24
*155 TAP_TAPCELL_ROW_4_25
*156 TAP_TAPCELL_ROW_5_26
*157 TAP_TAPCELL_ROW_6_27
*158 TAP_TAPCELL_ROW_7_28
*159 TAP_TAPCELL_ROW_8_29
*160 TAP_TAPCELL_ROW_9_30
*161 TAP_TAPCELL_ROW_9_31
*162 _04_
*163 _05_
*164 _06_
*165 _07_
*166 _08_
*167 _09_
*168 _10_
*169 _17_
*170 decode_day_12
*171 decode_day_13
*172 decode_day_14
*173 decode_day_15
*174 decode_day_16
*175 decode_day_17
*176 input1
*177 input2
*178 input3
*179 input4
*180 input5
*181 input6
*182 input7
*183 output10
*184 output11
*185 output8
*186 output9

*PORTS
am_pm I
day_num[0] O
day_num[1] O
day_num[2] O
day_num[3] O
day_num[4] O
hour_num[0] O
hour_num[1] O
hour_num[2] O
hour_num[3] O
hour_num[4] O
month[0] I
month[1] I
month[2] I
month[3] I
year[0] I
year[1] I
year[2] I
year[3] I
year[4] I
year[5] I
year[6] I

*D_NET *3 0.00172478
*CONN
*P am_pm I
*I *176:A I *D sky130_fd_sc_hd__buf_1
*CAP
1 am_pm 0.000806533
2 *176:A 0
3 *3:13 0.000806533
4 *3:13 *181:A 5.50106e-05
5 *3:13 *36:8 5.67058e-05
*RES
1 am_pm *3:13 32.2136 
2 *3:13 *176:A 23 
*END

*D_NET *4 0.00118461
*CONN
*P day_num[0] O
*I *185:X O *D sky130_fd_sc_hd__buf_2
*CAP
1 day_num[0] 0.000592306
2 *185:X 0.000592306
3 day_num[0] day_num[1] 0
*RES
1 *185:X day_num[0] 49.4757 
*END

*D_NET *5 0.000924738
*CONN
*P day_num[1] O
*I *186:X O *D sky130_fd_sc_hd__buf_2
*CAP
1 day_num[1] 0.0004438
2 *186:X 0.0004438
3 day_num[1] day_num[2] 0
4 day_num[1] *185:A 3.71369e-05
5 day_num[0] day_num[1] 0
*RES
1 *186:X day_num[1] 47.0936 
*END

*D_NET *6 0.00087563
*CONN
*P day_num[2] O
*I *172:HI O *D sky130_fd_sc_hd__conb_1
*CAP
1 day_num[2] 0.000423123
2 *172:HI 0.000423123
3 day_num[2] day_num[3] 0
4 day_num[2] *186:A 2.93845e-05
5 day_num[1] day_num[2] 0
*RES
1 *172:HI day_num[2] 46.6171 
*END

*D_NET *7 0.000944957
*CONN
*P day_num[3] O
*I *173:HI O *D sky130_fd_sc_hd__conb_1
*CAP
1 day_num[3] 0.00045391
2 *173:HI 0.00045391
3 day_num[3] day_num[4] 0
4 day_num[3] *185:A 3.71369e-05
5 day_num[2] day_num[3] 0
*RES
1 *173:HI day_num[3] 47.0936 
*END

*D_NET *8 0.000870227
*CONN
*P day_num[4] O
*I *174:HI O *D sky130_fd_sc_hd__conb_1
*CAP
1 day_num[4] 0.000425373
2 *174:HI 0.000425373
3 day_num[4] hour_num[0] 0
4 day_num[4] *185:A 1.94812e-05
5 day_num[3] day_num[4] 0
*RES
1 *174:HI day_num[4] 46.6171 
*END

*D_NET *9 0.000909863
*CONN
*P hour_num[0] O
*I *170:LO O *D sky130_fd_sc_hd__conb_1
*CAP
1 hour_num[0] 0.000454932
2 *170:LO 0.000454932
3 hour_num[0] hour_num[1] 0
4 day_num[4] hour_num[0] 0
*RES
1 *170:LO hour_num[0] 47.3214 
*END

*D_NET *10 0.000901682
*CONN
*P hour_num[1] O
*I *171:LO O *D sky130_fd_sc_hd__conb_1
*CAP
1 hour_num[1] 0.000450841
2 *171:LO 0.000450841
3 hour_num[1] hour_num[2] 0
4 hour_num[0] hour_num[1] 0
*RES
1 *171:LO hour_num[1] 47.3214 
*END

*D_NET *11 0.00102519
*CONN
*P hour_num[2] O
*I *183:X O *D sky130_fd_sc_hd__buf_2
*CAP
1 hour_num[2] 0.00048025
2 *183:X 0.00048025
3 hour_num[2] hour_num[3] 0
4 hour_num[2] *162:A 3.53115e-05
5 hour_num[2] *183:A 2.93845e-05
6 hour_num[1] hour_num[2] 0
*RES
1 *183:X hour_num[2] 47.57 
*END

*D_NET *12 0.00121619
*CONN
*P hour_num[3] O
*I *175:HI O *D sky130_fd_sc_hd__conb_1
*CAP
1 hour_num[3] 0.000565674
2 *175:HI 4.24211e-05
3 *12:8 0.000608096
4 hour_num[3] hour_num[4] 0
5 hour_num[2] hour_num[3] 0
*RES
1 *175:HI *12:8 38.6214 
2 *12:8 hour_num[3] 11.5171 
*END

*D_NET *13 0.00124274
*CONN
*P hour_num[4] O
*I *184:X O *D sky130_fd_sc_hd__buf_2
*CAP
1 hour_num[4] 0.000621369
2 *184:X 0.000621369
3 hour_num[3] hour_num[4] 0
*RES
1 *184:X hour_num[4] 49.9521 
*END

*D_NET *14 0.00129814
*CONN
*P month[0] I
*I *177:A I *D sky130_fd_sc_hd__buf_1
*CAP
1 month[0] 0.000583158
2 *177:A 0
3 *14:11 0.000583158
4 *14:11 *178:A 0
5 *14:11 *32:8 6.38845e-05
6 *14:11 *33:12 3.56477e-05
7 *14:11 *35:14 3.22879e-05
*RES
1 month[0] *14:11 27.3043 
2 *14:11 *177:A 23 
*END

*D_NET *15 0.00111237
*CONN
*P month[1] I
*I *178:A I *D sky130_fd_sc_hd__clkbuf_1
*CAP
1 month[1] 0.000556187
2 *178:A 0.000556187
3 *178:A *179:A 0
4 *14:11 *178:A 0
*RES
1 month[1] *178:A 49.6829 
*END

*D_NET *16 0.00104231
*CONN
*P month[2] I
*I *179:A I *D sky130_fd_sc_hd__buf_1
*CAP
1 month[2] 0.000521155
2 *179:A 0.000521155
3 *179:A *17:13 0
4 *178:A *179:A 0
*RES
1 month[2] *179:A 49.2064 
*END

*D_NET *17 0.00194559
*CONN
*P month[3] I
*I *180:A I *D sky130_fd_sc_hd__buf_1
*CAP
1 month[3] 0.000909186
2 *180:A 0
3 *17:13 0.000909186
4 *17:13 *33:12 5.67058e-05
5 *17:13 *34:12 7.05156e-05
6 *179:A *17:13 0
*RES
1 month[3] *17:13 34.1193 
2 *17:13 *180:A 23 
*END

*D_NET *18 0.0010962
*CONN
*P year[0] I
*I *181:A I *D sky130_fd_sc_hd__clkbuf_1
*CAP
1 year[0] 0.000520595
2 *181:A 0.000520595
3 *181:A *182:A 0
4 *3:13 *181:A 5.50106e-05
*RES
1 year[0] *181:A 49.3514 
*END

*D_NET *19 0.00100774
*CONN
*P year[1] I
*I *182:A I *D sky130_fd_sc_hd__clkbuf_1
*CAP
1 year[1] 0.000503868
2 *182:A 0.000503868
3 *181:A *182:A 0
*RES
1 year[1] *182:A 48.73 
*END

*D_NET *25 0.000300326
*CONN
*I *166:A2 I *D sky130_fd_sc_hd__a211oi_1
*I *163:Y O *D sky130_fd_sc_hd__inv_2
*CAP
1 *166:A2 4.33063e-05
2 *163:Y 4.33063e-05
3 *166:A2 *163:A 9.75779e-05
4 *166:A2 *29:12 1.76557e-05
5 *166:A2 *33:20 9.84794e-05
*RES
1 *163:Y *166:A2 47.5743 
*END

*D_NET *26 0.0020234
*CONN
*I *168:A I *D sky130_fd_sc_hd__or3_1
*I *165:Y O *D sky130_fd_sc_hd__nor3_1
*CAP
1 *168:A 0.000138055
2 *165:Y 0.000691319
3 *26:8 0.000829374
4 *26:8 *39:8 0.000364654
*RES
1 *165:Y *26:8 48.6264 
2 *26:8 *168:A 40.2579 
*END

*D_NET *27 0.000224196
*CONN
*I *168:B I *D sky130_fd_sc_hd__or3_1
*I *166:Y O *D sky130_fd_sc_hd__a211oi_1
*CAP
1 *168:B 6.20076e-05
2 *166:Y 6.20076e-05
3 *168:B *29:12 0.00010018
*RES
1 *166:Y *168:B 47.0979 
*END

*D_NET *28 0.0012837
*CONN
*I *168:C I *D sky130_fd_sc_hd__or3_1
*I *167:X O *D sky130_fd_sc_hd__mux2_1
*CAP
1 *168:C 9.77724e-05
2 *167:X 0.000294089
3 *28:10 0.000391862
4 *168:C *29:12 0.000128391
5 *28:10 *163:A 5.0135e-05
6 *28:10 *32:20 0.000139352
7 *28:10 *34:28 8.62783e-05
8 *28:10 *35:18 6.9805e-05
9 *28:10 *35:28 2.60152e-05
*RES
1 *167:X *28:10 43.2614 
2 *28:10 *168:C 40.5271 
*END

*D_NET *29 0.00673726
*CONN
*I *162:A I *D sky130_fd_sc_hd__inv_2
*I *169:A I *D sky130_fd_sc_hd__clkbuf_1
*I *176:X O *D sky130_fd_sc_hd__buf_1
*CAP
1 *162:A 0.000225552
2 *169:A 0
3 *176:X 9.53488e-05
4 *29:18 0.000225552
5 *29:16 0.00125096
6 *29:12 0.00279932
7 *29:8 0.00164371
8 *162:A *183:A 0.000106087
9 *29:12 *163:A 7.44257e-05
10 *29:12 *33:20 1.32939e-05
11 *29:12 *38:8 2.1476e-05
12 *29:16 *33:20 0
13 hour_num[2] *162:A 3.53115e-05
14 *166:A2 *29:12 1.76557e-05
15 *168:B *29:12 0.00010018
16 *168:C *29:12 0.000128391
*RES
1 *176:X *29:8 39.5536 
2 *29:8 *29:12 41.825 
3 *29:12 *29:16 38.3864 
4 *29:16 *29:18 15 
5 *29:18 *169:A 23 
6 *29:18 *162:A 27.9507 
*END

*D_NET *30 0.000276292
*CONN
*I *183:A I *D sky130_fd_sc_hd__buf_2
*I *169:X O *D sky130_fd_sc_hd__clkbuf_1
*CAP
1 *183:A 7.04103e-05
2 *169:X 7.04103e-05
3 hour_num[2] *183:A 2.93845e-05
4 *162:A *183:A 0.000106087
*RES
1 *169:X *183:A 47.9471 
*END

*D_NET *31 0.000238782
*CONN
*I *184:A I *D sky130_fd_sc_hd__buf_2
*I *162:Y O *D sky130_fd_sc_hd__inv_2
*CAP
1 *184:A 0.000119391
2 *162:Y 0.000119391
*RES
1 *162:Y *184:A 48.0507 
*END

*D_NET *32 0.00260002
*CONN
*I *167:S I *D sky130_fd_sc_hd__mux2_1
*I *164:A I *D sky130_fd_sc_hd__or4b_1
*I *163:A I *D sky130_fd_sc_hd__inv_2
*I *177:X O *D sky130_fd_sc_hd__buf_1
*CAP
1 *167:S 0
2 *164:A 9.37419e-05
3 *163:A 0.000151538
4 *177:X 3.87283e-05
5 *32:20 0.000395904
6 *32:12 0.000186619
7 *32:8 7.4723e-05
8 *163:A *33:20 0.000188926
9 *163:A *35:28 0
10 *164:A *33:20 5.94125e-05
11 *164:A *34:22 0.000107349
12 *164:A *35:18 0.000140259
13 *164:A *35:28 6.84987e-06
14 *32:8 *34:12 8.72173e-05
15 *32:12 *33:12 4.9662e-05
16 *32:12 *35:14 7.06771e-05
17 *32:20 *167:A0 2.70586e-05
18 *32:20 *33:12 6.5775e-05
19 *32:20 *35:14 0.000162135
20 *32:20 *35:18 0.000268074
21 *166:A2 *163:A 9.75779e-05
22 *14:11 *32:8 6.38845e-05
23 *28:10 *163:A 5.0135e-05
24 *28:10 *32:20 0.000139352
25 *29:12 *163:A 7.44257e-05
*RES
1 *177:X *32:8 39.2014 
2 *32:8 *32:12 16.0979 
3 *32:12 *32:20 20.5514 
4 *32:20 *163:A 42.1843 
5 *32:20 *164:A 40.9 
6 *32:12 *167:S 23 
*END

*D_NET *33 0.00270726
*CONN
*I *164:D_N I *D sky130_fd_sc_hd__or4b_1
*I *166:A1 I *D sky130_fd_sc_hd__a211oi_1
*I *178:X O *D sky130_fd_sc_hd__clkbuf_1
*CAP
1 *164:D_N 0
2 *166:A1 0
3 *178:X 0.000413467
4 *33:20 0.000314187
5 *33:12 0.000727654
6 *33:12 *167:A0 5.75649e-05
7 *33:12 *34:12 8.7283e-06
8 *33:12 *34:16 0.000128723
9 *33:12 *34:22 0.000317553
10 *33:12 *35:14 5.2164e-05
11 *33:12 *35:18 0.000119313
12 *33:20 *34:12 0
13 *163:A *33:20 0.000188926
14 *164:A *33:20 5.94125e-05
15 *166:A2 *33:20 9.84794e-05
16 *14:11 *33:12 3.56477e-05
17 *17:13 *33:12 5.67058e-05
18 *29:12 *33:20 1.32939e-05
19 *29:16 *33:20 0
20 *32:12 *33:12 4.9662e-05
21 *32:20 *33:12 6.5775e-05
*RES
1 *178:X *33:12 33.3364 
2 *33:12 *33:20 35.5929 
3 *33:20 *166:A1 23 
4 *33:12 *164:D_N 23 
*END

*D_NET *34 0.00357277
*CONN
*I *167:A1 I *D sky130_fd_sc_hd__mux2_1
*I *164:B I *D sky130_fd_sc_hd__or4b_1
*I *166:B1 I *D sky130_fd_sc_hd__a211oi_1
*I *179:X O *D sky130_fd_sc_hd__buf_1
*CAP
1 *167:A1 0
2 *164:B 0
3 *166:B1 0
4 *179:X 0.000531033
5 *34:28 4.16212e-05
6 *34:22 0.000560513
7 *34:16 0.000614434
8 *34:12 0.000626574
9 *34:12 *35:14 0.000230604
10 *34:22 *35:18 8.48502e-06
11 *34:22 *39:8 6.68617e-05
12 *34:28 *35:28 8.62783e-05
13 *164:A *34:22 0.000107349
14 *17:13 *34:12 7.05156e-05
15 *28:10 *34:28 8.62783e-05
16 *32:8 *34:12 8.72173e-05
17 *33:12 *34:12 8.7283e-06
18 *33:12 *34:16 0.000128723
19 *33:12 *34:22 0.000317553
20 *33:20 *34:12 0
*RES
1 *179:X *34:12 46.3893 
2 *34:12 *34:16 16.5743 
3 *34:16 *34:22 8.86571 
4 *34:22 *34:28 31.2014 
5 *34:28 *166:B1 23 
6 *34:22 *164:B 23 
7 *34:16 *167:A1 23 
*END

*D_NET *35 0.00267636
*CONN
*I *167:A0 I *D sky130_fd_sc_hd__mux2_1
*I *164:C I *D sky130_fd_sc_hd__or4b_1
*I *166:C1 I *D sky130_fd_sc_hd__a211oi_1
*I *180:X O *D sky130_fd_sc_hd__buf_1
*CAP
1 *167:A0 3.51521e-05
2 *164:C 0
3 *166:C1 0
4 *180:X 0.000307749
5 *35:28 0.000209935
6 *35:18 0.000316494
7 *35:16 0.000141711
8 *35:14 0.000307749
9 *163:A *35:28 0
10 *164:A *35:18 0.000140259
11 *164:A *35:28 6.84987e-06
12 *14:11 *35:14 3.22879e-05
13 *28:10 *35:18 6.9805e-05
14 *28:10 *35:28 2.60152e-05
15 *32:12 *35:14 7.06771e-05
16 *32:20 *167:A0 2.70586e-05
17 *32:20 *35:14 0.000162135
18 *32:20 *35:18 0.000268074
19 *33:12 *167:A0 5.75649e-05
20 *33:12 *35:14 5.2164e-05
21 *33:12 *35:18 0.000119313
22 *34:12 *35:14 0.000230604
23 *34:22 *35:18 8.48502e-06
24 *34:28 *35:28 8.62783e-05
*RES
1 *180:X *35:14 44.8771 
2 *35:14 *35:16 15 
3 *35:16 *35:18 4.43286 
4 *35:18 *35:28 33.8529 
5 *35:28 *166:C1 23 
6 *35:18 *164:C 23 
7 *35:16 *167:A0 24.305 
*END

*D_NET *36 0.00131003
*CONN
*I *165:B I *D sky130_fd_sc_hd__nor3_1
*I *181:X O *D sky130_fd_sc_hd__clkbuf_1
*CAP
1 *165:B 0
2 *181:X 0.000584758
3 *36:8 0.000584758
4 *36:8 *165:A 8.38096e-05
5 *3:13 *36:8 5.67058e-05
*RES
1 *181:X *36:8 31.6171 
2 *36:8 *165:B 23 
*END

*D_NET *37 0.000403941
*CONN
*I *165:A I *D sky130_fd_sc_hd__nor3_1
*I *182:X O *D sky130_fd_sc_hd__clkbuf_1
*CAP
1 *165:A 0.000160066
2 *182:X 0.000160066
3 *36:8 *165:A 8.38096e-05
*RES
1 *182:X *165:A 49.5007 
*END

*D_NET *38 0.00465224
*CONN
*I *185:A I *D sky130_fd_sc_hd__buf_2
*I *168:X O *D sky130_fd_sc_hd__or3_1
*CAP
1 *185:A 0.00079705
2 *168:X 9.05951e-05
3 *38:12 0.00193304
4 *38:8 0.00122658
5 *185:A *186:A 0.00048975
6 day_num[1] *185:A 3.71369e-05
7 day_num[3] *185:A 3.71369e-05
8 day_num[4] *185:A 1.94812e-05
9 *29:12 *38:8 2.1476e-05
*RES
1 *168:X *38:8 39.0979 
2 *38:8 *38:12 36.6257 
3 *38:12 *185:A 39.8407 
*END

*D_NET *39 0.00517957
*CONN
*I *165:C I *D sky130_fd_sc_hd__nor3_1
*I *186:A I *D sky130_fd_sc_hd__buf_2
*I *164:X O *D sky130_fd_sc_hd__or4b_1
*CAP
1 *165:C 0
2 *186:A 0.000181711
3 *164:X 0.000568865
4 *39:12 0.00154559
5 *39:8 0.00193275
6 day_num[2] *186:A 2.93845e-05
7 *185:A *186:A 0.00048975
8 *26:8 *39:8 0.000364654
9 *34:22 *39:8 6.68617e-05
*RES
1 *164:X *39:8 36.3814 
2 *39:8 *39:12 40.8514 
3 *39:12 *186:A 43.3857 
4 *39:8 *165:C 23 
*END
