*SPEF "ieee 1481-1999"
*DESIGN "alarm"
*DATE "19:22:29 Friday January 16, 2026"
*VENDOR "The OpenROAD Project"
*PROGRAM "OpenROAD"
*VERSION "edf00dff99f6c40d67a30c0e22a8191c5d2ed9d6"
*DESIGN_FLOW "NAME_SCOPE LOCAL" "PIN_CAP NONE"
*DIVIDER /
*DELIMITER :
*BUS_DELIMITER []
*T_UNIT 1 NS
*C_UNIT 1 PF
*R_UNIT 1 OHM
*L_UNIT 1 HENRY

*NAME_MAP
*3 alarm_hour[0]
*4 alarm_hour[1]
*5 alarm_hour[2]
*6 alarm_hour[3]
*7 alarm_hour[4]
*8 alarm_i
*9 alarm_min[0]
*10 alarm_min[1]
*11 alarm_min[2]
*12 alarm_min[3]
*13 alarm_min[4]
*14 alarm_min[5]
*15 alarm_o
*16 clk
*17 hour[0]
*18 hour[1]
*19 hour[2]
*20 hour[3]
*21 hour[4]
*22 minute[0]
*23 minute[1]
*24 minute[2]
*25 minute[3]
*26 minute[4]
*27 minute[5]
*28 rst_n
*29 _00_
*30 _01_
*31 _02_
*32 _03_
*33 _04_
*34 _05_
*35 _06_
*36 _07_
*37 _08_
*38 _09_
*39 _10_
*40 _11_
*41 _12_
*42 _13_
*43 _14_
*44 _15_
*45 _16_
*46 _17_
*47 _18_
*48 clknet_0_clk
*49 clknet_1_0__leaf_clk
*50 clknet_1_1__leaf_clk
*51 net1
*52 net10
*53 net11
*54 net12
*55 net13
*56 net14
*57 net15
*58 net16
*59 net17
*60 net18
*61 net19
*62 net2
*63 net20
*64 net21
*65 net22
*66 net23
*67 net24
*68 net25
*69 net26
*70 net27
*71 net3
*72 net4
*73 net5
*74 net6
*75 net7
*76 net8
*77 net9
*78 state_alarm
*79 FILLER_0_3
*80 FILLER_0_49
*81 FILLER_0_55
*82 FILLER_0_80
*83 FILLER_1_17
*84 FILLER_1_25
*85 FILLER_1_46
*86 FILLER_1_54
*87 FILLER_1_57
*88 FILLER_1_69
*89 FILLER_2_10
*90 FILLER_2_14
*91 FILLER_2_26
*92 FILLER_2_37
*93 FILLER_2_45
*94 FILLER_2_67
*95 FILLER_2_79
*96 FILLER_3_19
*97 FILLER_3_31
*98 FILLER_3_43
*99 FILLER_3_55
*100 FILLER_3_57
*101 FILLER_3_69
*102 FILLER_3_77
*103 FILLER_3_9
*104 FILLER_4_27
*105 FILLER_4_29
*106 FILLER_4_57
*107 FILLER_4_69
*108 FILLER_4_77
*109 FILLER_5_15
*110 FILLER_5_25
*111 FILLER_5_37
*112 FILLER_5_49
*113 FILLER_5_55
*114 FILLER_5_57
*115 FILLER_5_6
*116 FILLER_5_69
*117 FILLER_5_77
*118 FILLER_6_19
*119 FILLER_6_27
*120 FILLER_6_29
*121 FILLER_6_41
*122 FILLER_6_53
*123 FILLER_6_65
*124 FILLER_6_77
*125 FILLER_6_9
*126 FILLER_7_10
*127 FILLER_7_22
*128 FILLER_7_34
*129 FILLER_7_46
*130 FILLER_7_54
*131 FILLER_7_57
*132 FILLER_7_69
*133 FILLER_8_12
*134 FILLER_8_20
*135 FILLER_8_29
*136 FILLER_8_41
*137 FILLER_8_53
*138 FILLER_8_65
*139 FILLER_8_73
*140 FILLER_9_20
*141 FILLER_9_29
*142 FILLER_9_41
*143 FILLER_9_53
*144 FILLER_9_57
*145 FILLER_9_69
*146 PHY_EDGE_ROW_0_Left_10
*147 PHY_EDGE_ROW_0_Right_0
*148 PHY_EDGE_ROW_1_Left_11
*149 PHY_EDGE_ROW_1_Right_1
*150 PHY_EDGE_ROW_2_Left_12
*151 PHY_EDGE_ROW_2_Right_2
*152 PHY_EDGE_ROW_3_Left_13
*153 PHY_EDGE_ROW_3_Right_3
*154 PHY_EDGE_ROW_4_Left_14
*155 PHY_EDGE_ROW_4_Right_4
*156 PHY_EDGE_ROW_5_Left_15
*157 PHY_EDGE_ROW_5_Right_5
*158 PHY_EDGE_ROW_6_Left_16
*159 PHY_EDGE_ROW_6_Right_6
*160 PHY_EDGE_ROW_7_Left_17
*161 PHY_EDGE_ROW_7_Right_7
*162 PHY_EDGE_ROW_8_Left_18
*163 PHY_EDGE_ROW_8_Right_8
*164 PHY_EDGE_ROW_9_Left_19
*165 PHY_EDGE_ROW_9_Right_9
*166 TAP_TAPCELL_ROW_0_20
*167 TAP_TAPCELL_ROW_0_21
*168 TAP_TAPCELL_ROW_1_22
*169 TAP_TAPCELL_ROW_2_23
*170 TAP_TAPCELL_ROW_3_24
*171 TAP_TAPCELL_ROW_4_25
*172 TAP_TAPCELL_ROW_5_26
*173 TAP_TAPCELL_ROW_6_27
*174 TAP_TAPCELL_ROW_7_28
*175 TAP_TAPCELL_ROW_8_29
*176 TAP_TAPCELL_ROW_9_30
*177 TAP_TAPCELL_ROW_9_31
*178 _19_
*179 _20_
*180 _21_
*181 _22_
*182 _23_
*183 _24_
*184 _25_
*185 _26_
*186 _27_
*187 _28_
*188 _29_
*189 _30_
*190 _31_
*191 _32_
*192 _33_
*193 _34_
*194 _35_
*195 _36_
*196 _37_
*197 _38_
*198 _39_
*199 clkbuf_0_clk
*200 clkbuf_1_0__f_clk
*201 clkbuf_1_1__f_clk
*202 hold1
*203 hold2
*204 input1
*205 input10
*206 input11
*207 input12
*208 input13
*209 input14
*210 input15
*211 input16
*212 input17
*213 input18
*214 input19
*215 input2
*216 input20
*217 input21
*218 input22
*219 input23
*220 input24
*221 input3
*222 input4
*223 input5
*224 input6
*225 input7
*226 input8
*227 input9
*228 output25

*PORTS
alarm_hour[0] I
alarm_hour[1] I
alarm_hour[2] I
alarm_hour[3] I
alarm_hour[4] I
alarm_i I
alarm_min[0] I
alarm_min[1] I
alarm_min[2] I
alarm_min[3] I
alarm_min[4] I
alarm_min[5] I
alarm_o O
clk I
hour[0] I
hour[1] I
hour[2] I
hour[3] I
hour[4] I
minute[0] I
minute[1] I
minute[2] I
minute[3] I
minute[4] I
minute[5] I
rst_n I

*D_NET *3 0.000783891
*CONN
*P alarm_hour[0] I
*I *204:A I *D sky130_fd_sc_hd__clkbuf_1
*CAP
1 alarm_hour[0] 0.000266086
2 *204:A 0.000266086
3 *204:A *179:B 1.55253e-05
4 *204:A *207:A 1.82163e-05
5 *204:A *215:A 0.000217978
*RES
1 alarm_hour[0] *204:A 7.78043 
*END

*D_NET *4 0.000821605
*CONN
*P alarm_hour[1] I
*I *215:A I *D sky130_fd_sc_hd__clkbuf_1
*CAP
1 alarm_hour[1] 0.000292705
2 *215:A 0.000292705
3 *215:A *207:A 0
4 *215:A *221:A 1.82163e-05
5 *204:A *215:A 0.000217978
*RES
1 alarm_hour[1] *215:A 8.96717 
*END

*D_NET *5 0.00117318
*CONN
*P alarm_hour[2] I
*I *221:A I *D sky130_fd_sc_hd__clkbuf_1
*CAP
1 alarm_hour[2] 0.000330946
2 *221:A 0.000330946
3 *221:A *178:B 4.89395e-05
4 *221:A *188:B 3.57083e-05
5 *221:A *222:A 2.73244e-05
6 *221:A *223:A 0.000246314
7 *221:A *224:A 0.000134784
8 *215:A *221:A 1.82163e-05
*RES
1 alarm_hour[2] *221:A 9.5487 
*END

*D_NET *6 0.000650925
*CONN
*P alarm_hour[3] I
*I *222:A I *D sky130_fd_sc_hd__clkbuf_1
*CAP
1 alarm_hour[3] 0.000244673
2 *222:A 0.000244673
3 *222:A *223:A 0.000134255
4 *221:A *222:A 2.73244e-05
*RES
1 alarm_hour[3] *222:A 7.69217 
*END

*D_NET *7 0.00148727
*CONN
*P alarm_hour[4] I
*I *223:A I *D sky130_fd_sc_hd__clkbuf_1
*CAP
1 alarm_hour[4] 0.000350914
2 *223:A 0.000350914
3 *223:A *224:A 0.000404869
4 *221:A *223:A 0.000246314
5 *222:A *223:A 0.000134255
*RES
1 alarm_hour[4] *223:A 12.2504 
*END

*D_NET *8 0.00179939
*CONN
*P alarm_i I
*I *224:A I *D sky130_fd_sc_hd__buf_1
*CAP
1 alarm_i 0.000614849
2 *224:A 0.000614849
3 *224:A *188:B 3.00381e-05
4 *224:A *191:B 0
5 *221:A *224:A 0.000134784
6 *223:A *224:A 0.000404869
*RES
1 alarm_i *224:A 15.367 
*END

*D_NET *9 0.00148018
*CONN
*P alarm_min[0] I
*I *225:A I *D sky130_fd_sc_hd__clkbuf_1
*CAP
1 alarm_min[0] 0.000566289
2 *225:A 0.000566289
3 *225:A alarm_o 2.01157e-05
4 *225:A *185:A 0.000264467
5 *225:A *226:A 6.3023e-05
*RES
1 alarm_min[0] *225:A 12.1402 
*END

*D_NET *10 0.0020158
*CONN
*P alarm_min[1] I
*I *226:A I *D sky130_fd_sc_hd__clkbuf_1
*CAP
1 alarm_min[1] 0.000825568
2 *226:A 0.000825568
3 *226:A *186:B 0.000120186
4 *226:A *189:A 6.15428e-05
5 *226:A *192:B 5.42473e-05
6 *226:A *196:B1 0
7 *226:A *227:A 6.56619e-05
8 *225:A *226:A 6.3023e-05
*RES
1 alarm_min[1] *226:A 10.0194 
*END

*D_NET *11 0.00132767
*CONN
*P alarm_min[2] I
*I *227:A I *D sky130_fd_sc_hd__clkbuf_1
*CAP
1 alarm_min[2] 0.00050999
2 *227:A 0.00050999
3 *227:A alarm_o 3.07153e-05
4 *227:A *192:A 6.32751e-05
5 *227:A *192:B 0
6 *227:A *194:C 7.10578e-05
7 *227:A *205:A 3.6993e-05
8 *227:A *228:A 3.99879e-05
9 *226:A *227:A 6.56619e-05
*RES
1 alarm_min[2] *227:A 10.5935 
*END

*D_NET *12 0.000934756
*CONN
*P alarm_min[3] I
*I *205:A I *D sky130_fd_sc_hd__clkbuf_1
*CAP
1 alarm_min[3] 0.000282502
2 *205:A 0.000282502
3 *205:A *180:B 4.85494e-05
4 *205:A *181:B 5.4155e-06
5 *205:A *193:B 4.99619e-05
6 *205:A *206:A 0.000228833
7 *227:A *205:A 3.6993e-05
*RES
1 alarm_min[3] *205:A 9.31043 
*END

*D_NET *13 0.00062191
*CONN
*P alarm_min[4] I
*I *206:A I *D sky130_fd_sc_hd__clkbuf_1
*CAP
1 alarm_min[4] 0.000180604
2 *206:A 0.000180604
3 *206:A *180:B 7.00889e-06
4 *206:A *207:A 2.48607e-05
5 *205:A *206:A 0.000228833
*RES
1 alarm_min[4] *206:A 7.18217 
*END

*D_NET *14 0.000537291
*CONN
*P alarm_min[5] I
*I *207:A I *D sky130_fd_sc_hd__clkbuf_1
*CAP
1 alarm_min[5] 0.000247107
2 *207:A 0.000247107
3 *204:A *207:A 1.82163e-05
4 *206:A *207:A 2.48607e-05
5 *215:A *207:A 0
*RES
1 alarm_min[5] *207:A 7.43717 
*END

*D_NET *15 0.00138784
*CONN
*P alarm_o O
*I *228:X O *D sky130_fd_sc_hd__buf_2
*CAP
1 alarm_o 0.000668506
2 *228:X 0.000668506
3 *225:A alarm_o 2.01157e-05
4 *227:A alarm_o 3.07153e-05
*RES
1 *228:X alarm_o 14.1572 
*END

*D_NET *16 0.0024874
*CONN
*P clk I
*I *199:A I *D sky130_fd_sc_hd__clkbuf_16
*CAP
1 clk 0.000939296
2 *199:A 0.000939296
3 *199:A *185:A 2.67022e-05
4 *199:A *186:A 0.00019639
5 *199:A *213:A 0
6 *199:A *214:A 2.24912e-05
7 *199:A *220:A 0.000363225
*RES
1 clk *199:A 18.6433 
*END

*D_NET *17 0.000828713
*CONN
*P hour[0] I
*I *208:A I *D sky130_fd_sc_hd__buf_1
*CAP
1 hour[0] 0.000298035
2 *208:A 0.000298035
3 *208:A *179:A 0.000103238
4 *208:A *209:A 6.65816e-05
5 *208:A *219:A 6.28228e-05
*RES
1 hour[0] *208:A 6.55157 
*END

*D_NET *18 0.000522057
*CONN
*P hour[1] I
*I *209:A I *D sky130_fd_sc_hd__buf_1
*CAP
1 hour[1] 0.000167944
2 *209:A 0.000167944
3 *209:A *191:A 3.67085e-05
4 *209:A *210:A 8.28789e-05
5 *208:A *209:A 6.65816e-05
*RES
1 hour[1] *209:A 5.61177 
*END

*D_NET *19 0.000561522
*CONN
*P hour[2] I
*I *210:A I *D sky130_fd_sc_hd__buf_1
*CAP
1 hour[2] 0.000179154
2 *210:A 0.000179154
3 *210:A *211:A 0.000120336
4 *209:A *210:A 8.28789e-05
*RES
1 hour[2] *210:A 5.86677 
*END

*D_NET *20 0.00102189
*CONN
*P hour[3] I
*I *211:A I *D sky130_fd_sc_hd__buf_1
*CAP
1 hour[3] 0.00033993
2 *211:A 0.00033993
3 *211:A *212:A 0.000221699
4 *210:A *211:A 0.000120336
*RES
1 hour[3] *211:A 8.59157 
*END

*D_NET *21 0.00143331
*CONN
*P hour[4] I
*I *212:A I *D sky130_fd_sc_hd__buf_1
*CAP
1 hour[4] 0.000605807
2 *212:A 0.000605807
3 *211:A *212:A 0.000221699
*RES
1 hour[4] *212:A 11.3164 
*END

*D_NET *22 0.0009812
*CONN
*P minute[0] I
*I *213:A I *D sky130_fd_sc_hd__buf_1
*CAP
1 minute[0] 0.000409008
2 *213:A 0.000409008
3 *213:A *192:A 4.82863e-05
4 *213:A *214:A 5.85675e-05
5 *213:A *220:A 5.63302e-05
6 *199:A *213:A 0
*RES
1 minute[0] *213:A 9.75697 
*END

*D_NET *23 0.000507423
*CONN
*P minute[1] I
*I *214:A I *D sky130_fd_sc_hd__buf_1
*CAP
1 minute[1] 0.000173231
2 *214:A 0.000173231
3 *214:A *216:A 7.9903e-05
4 *214:A *220:A 0
5 *199:A *214:A 2.24912e-05
6 *213:A *214:A 5.85675e-05
*RES
1 minute[1] *214:A 5.10177 
*END

*D_NET *24 0.000650606
*CONN
*P minute[2] I
*I *216:A I *D sky130_fd_sc_hd__buf_1
*CAP
1 minute[2] 0.000216631
2 *216:A 0.000216631
3 *216:A *186:A 5.21046e-05
4 *216:A *217:A 8.53361e-05
5 *214:A *216:A 7.9903e-05
*RES
1 minute[2] *216:A 6.63177 
*END

*D_NET *25 0.000534726
*CONN
*P minute[3] I
*I *217:A I *D sky130_fd_sc_hd__clkbuf_1
*CAP
1 minute[3] 0.000182027
2 *217:A 0.000182027
3 *217:A *218:A 8.53361e-05
4 *216:A *217:A 8.53361e-05
*RES
1 minute[3] *217:A 5.86677 
*END

*D_NET *26 0.000520839
*CONN
*P minute[4] I
*I *218:A I *D sky130_fd_sc_hd__buf_1
*CAP
1 minute[4] 0.000184133
2 *218:A 0.000184133
3 *218:A *193:A 1.12156e-05
4 *218:A *219:A 5.60212e-05
5 *217:A *218:A 8.53361e-05
*RES
1 minute[4] *218:A 5.61177 
*END

*D_NET *27 0.000447532
*CONN
*P minute[5] I
*I *219:A I *D sky130_fd_sc_hd__buf_1
*CAP
1 minute[5] 0.000164344
2 *219:A 0.000164344
3 *208:A *219:A 6.28228e-05
4 *218:A *219:A 5.60212e-05
*RES
1 minute[5] *219:A 4.84677 
*END

*D_NET *28 0.000966267
*CONN
*P rst_n I
*I *220:A I *D sky130_fd_sc_hd__buf_1
*CAP
1 rst_n 0.000273356
2 *220:A 0.000273356
3 *199:A *220:A 0.000363225
4 *213:A *220:A 5.63302e-05
5 *214:A *220:A 0
*RES
1 rst_n *220:A 7.96503 
*END

*D_NET *29 0.00109089
*CONN
*I *197:D I *D sky130_fd_sc_hd__dfrtp_1
*I *178:X O *D sky130_fd_sc_hd__xor2_1
*CAP
1 *197:D 0.000229487
2 *178:X 0.000229487
3 *197:D *192:A 0.000518351
4 *197:D *197:RESET_B 0.000113562
*RES
1 *178:X *197:D 9.515 
*END

*D_NET *30 0.00202493
*CONN
*I *198:D I *D sky130_fd_sc_hd__dfrtp_1
*I *196:X O *D sky130_fd_sc_hd__o21a_1
*CAP
1 *198:D 0.000380131
2 *196:X 0.000380131
3 *198:D *185:A 0.00101176
4 *198:D *196:A1 4.99619e-05
5 *198:D *196:B1 8.65905e-05
6 *198:D *198:RESET_B 4.54998e-05
7 *198:D *67:10 7.08554e-05
*RES
1 *196:X *198:D 14 
*END

*D_NET *31 0.000902811
*CONN
*I *184:C1 I *D sky130_fd_sc_hd__a221o_1
*I *179:X O *D sky130_fd_sc_hd__xor2_1
*CAP
1 *184:C1 0.000385623
2 *179:X 0.000385623
3 *184:C1 *179:A 1.79174e-05
4 *184:C1 *179:B 3.72081e-05
5 *184:C1 *184:B2 7.64385e-05
*RES
1 *179:X *184:C1 13.365 
*END

*D_NET *32 0.000392455
*CONN
*I *184:A1 I *D sky130_fd_sc_hd__a221o_1
*I *180:X O *D sky130_fd_sc_hd__or2_1
*CAP
1 *184:A1 0.000155641
2 *180:X 0.000155641
3 *184:A1 *180:A 4.40446e-05
4 *184:A1 *184:B1 2.11084e-05
5 *184:A1 *184:B2 1.60203e-05
*RES
1 *180:X *184:A1 5.39 
*END

*D_NET *33 0.000526282
*CONN
*I *184:A2 I *D sky130_fd_sc_hd__a221o_1
*I *181:Y O *D sky130_fd_sc_hd__nand2_1
*CAP
1 *184:A2 0.000108891
2 *181:Y 0.000108891
3 *184:A2 *180:A 1.54111e-05
4 *184:A2 *181:A 5.77162e-05
5 *184:A2 *189:C 0.000116853
6 *184:A2 *189:D 0.00011852
*RES
1 *181:Y *184:A2 9.6525 
*END

*D_NET *34 0.000499842
*CONN
*I *184:B1 I *D sky130_fd_sc_hd__a221o_1
*I *182:Y O *D sky130_fd_sc_hd__nand2_1
*CAP
1 *184:B1 0.000116
2 *182:Y 0.000116
3 *184:B1 *180:A 4.82863e-05
4 *184:B1 *183:A 2.49909e-05
5 *184:B1 *184:B2 6.12665e-05
6 *184:B1 *189:D 0.00011219
7 *184:A1 *184:B1 2.11084e-05
*RES
1 *182:Y *184:B1 9.84 
*END

*D_NET *35 0.000405147
*CONN
*I *184:B2 I *D sky130_fd_sc_hd__a221o_1
*I *183:X O *D sky130_fd_sc_hd__or2_1
*CAP
1 *184:B2 0.000101456
2 *183:X 0.000101456
3 *184:B2 *180:A 1.34967e-05
4 *184:B2 *183:A 2.69217e-05
5 *184:B2 *189:D 8.09021e-06
6 *184:A1 *184:B2 1.60203e-05
7 *184:B1 *184:B2 6.12665e-05
8 *184:C1 *184:B2 7.64385e-05
*RES
1 *183:X *184:B2 9.525 
*END

*D_NET *36 0.000627023
*CONN
*I *195:A I *D sky130_fd_sc_hd__nor3_1
*I *184:X O *D sky130_fd_sc_hd__a221o_1
*CAP
1 *195:A 0.000271912
2 *184:X 0.000271912
3 *195:A *180:A 2.47313e-05
4 *195:A *193:A 4.92935e-05
5 *195:A *64:6 9.17504e-06
*RES
1 *184:X *195:A 6.425 
*END

*D_NET *37 0.00141108
*CONN
*I *189:A I *D sky130_fd_sc_hd__or4_1
*I *185:X O *D sky130_fd_sc_hd__xor2_1
*CAP
1 *189:A 0.000398656
2 *185:X 0.000398656
3 *189:A *185:A 0.000173569
4 *189:A *185:B 4.99619e-05
5 *189:A *186:B 7.89689e-05
6 *189:A *189:B 2.67022e-05
7 *189:A *189:C 9.50342e-06
8 *189:A *194:C 0.000213523
9 *226:A *189:A 6.15428e-05
*RES
1 *185:X *189:A 15.09 
*END

*D_NET *38 0.000494306
*CONN
*I *189:B I *D sky130_fd_sc_hd__or4_1
*I *186:X O *D sky130_fd_sc_hd__xor2_1
*CAP
1 *189:B 0.000151365
2 *186:X 0.000151365
3 *189:B *186:A 0.000164874
4 *189:A *189:B 2.67022e-05
*RES
1 *186:X *189:B 9.555 
*END

*D_NET *39 0.00218039
*CONN
*I *189:C I *D sky130_fd_sc_hd__or4_1
*I *187:X O *D sky130_fd_sc_hd__xor2_1
*CAP
1 *189:C 0.000530239
2 *187:X 0.000530239
3 *189:C *181:A 0.00010829
4 *189:C *187:A 5.07419e-05
5 *189:C *188:B 9.37731e-05
6 *189:C *189:D 0.000289478
7 *189:C *190:A 0.000308052
8 *189:C *194:B 0
9 *189:C *194:C 5.11148e-06
10 *189:C *194:D 0.000138106
11 *184:A2 *189:C 0.000116853
12 *189:A *189:C 9.50342e-06
*RES
1 *187:X *189:C 20.175 
*END

*D_NET *40 0.00189683
*CONN
*I *189:D I *D sky130_fd_sc_hd__or4_1
*I *188:X O *D sky130_fd_sc_hd__xor2_1
*CAP
1 *189:D 0.000531278
2 *188:X 0.000531278
3 *189:D *180:B 0
4 *189:D *190:A 0.000305998
5 *184:A2 *189:D 0.00011852
6 *184:B1 *189:D 0.00011219
7 *184:B2 *189:D 8.09021e-06
8 *189:C *189:D 0.000289478
*RES
1 *188:X *189:D 18.525 
*END

*D_NET *41 0.000736189
*CONN
*I *195:B I *D sky130_fd_sc_hd__nor3_1
*I *189:X O *D sky130_fd_sc_hd__or4_1
*CAP
1 *195:B 0.000322304
2 *189:X 0.000322304
3 *195:B *178:B 0
4 *195:B *193:B 1.1392e-05
5 *195:B *195:C 9.50342e-06
6 *195:B *196:A2 7.06865e-05
*RES
1 *189:X *195:B 11.1 
*END

*D_NET *42 0.000587161
*CONN
*I *194:A I *D sky130_fd_sc_hd__or4_1
*I *190:X O *D sky130_fd_sc_hd__xor2_1
*CAP
1 *194:A 0.000204107
2 *190:X 0.000204107
3 *194:A *178:B 0.000178946
*RES
1 *190:X *194:A 10.83 
*END

*D_NET *43 0.00100014
*CONN
*I *194:B I *D sky130_fd_sc_hd__or4_1
*I *191:X O *D sky130_fd_sc_hd__xor2_1
*CAP
1 *194:B 0.000322608
2 *191:X 0.000322608
3 *194:B *178:B 0.000295623
4 *194:B *194:C 5.20193e-05
5 *194:B *194:D 7.27704e-06
6 *189:C *194:B 0
*RES
1 *191:X *194:B 14.19 
*END

*D_NET *44 0.00194466
*CONN
*I *194:C I *D sky130_fd_sc_hd__or4_1
*I *192:X O *D sky130_fd_sc_hd__xor2_1
*CAP
1 *194:C 0.000325762
2 *192:X 0.000325762
3 *194:C *178:B 0.000113051
4 *194:C *181:A 0.000204119
5 *194:C *192:A 0.000198945
6 *194:C *193:B 0.000229203
7 *194:C *194:D 0.000106035
8 *194:C *196:B1 1.71013e-05
9 *194:C *66:14 2.10905e-05
10 *194:C *69:10 6.18754e-05
11 *189:A *194:C 0.000213523
12 *189:C *194:C 5.11148e-06
13 *194:B *194:C 5.20193e-05
14 *227:A *194:C 7.10578e-05
*RES
1 *192:X *194:C 18.09 
*END

*D_NET *45 0.000550592
*CONN
*I *194:D I *D sky130_fd_sc_hd__or4_1
*I *193:X O *D sky130_fd_sc_hd__xor2_1
*CAP
1 *194:D 8.41954e-05
2 *193:X 8.41954e-05
3 *194:D *181:A 9.12494e-06
4 *194:D *66:14 0.000121659
5 *189:C *194:D 0.000138106
6 *194:B *194:D 7.27704e-06
7 *194:C *194:D 0.000106035
*RES
1 *193:X *194:D 9.975 
*END

*D_NET *46 0.000377734
*CONN
*I *195:C I *D sky130_fd_sc_hd__nor3_1
*I *194:X O *D sky130_fd_sc_hd__or4_1
*CAP
1 *195:C 0.000171433
2 *194:X 0.000171433
3 *195:C *178:B 0
4 *195:C *66:14 2.53645e-05
5 *195:B *195:C 9.50342e-06
*RES
1 *194:X *195:C 9.63 
*END

*D_NET *47 0.00172153
*CONN
*I *196:A2 I *D sky130_fd_sc_hd__o21a_1
*I *195:Y O *D sky130_fd_sc_hd__nor3_1
*CAP
1 *196:A2 0.000541245
2 *195:Y 0.000541245
3 *196:A2 *178:B 0.000199203
4 *196:A2 *185:A 0.000237249
5 *196:A2 *193:A 3.03775e-05
6 *196:A2 *196:B1 0
7 *196:A2 *202:A 6.47516e-05
8 *196:A2 *203:A 4.43871e-06
9 *196:A2 *228:A 3.23391e-05
10 *195:B *196:A2 7.06865e-05
*RES
1 *195:Y *196:A2 17.16 
*END

*D_NET *48 0.00145511
*CONN
*I *201:A I *D sky130_fd_sc_hd__clkbuf_16
*I *200:A I *D sky130_fd_sc_hd__clkbuf_16
*I *199:X O *D sky130_fd_sc_hd__clkbuf_16
*CAP
1 *201:A 0.00030136
2 *200:A 0.000237636
3 *199:X 0.000140949
4 *48:8 0.000679944
5 *201:A *193:A 2.75145e-05
6 *48:8 *186:A 6.77062e-05
*RES
1 *199:X *48:8 5.43 
2 *48:8 *200:A 7.275 
3 *48:8 *201:A 8.49 
*END

*D_NET *49 0.00146981
*CONN
*I *198:CLK I *D sky130_fd_sc_hd__dfrtp_1
*I *200:X O *D sky130_fd_sc_hd__clkbuf_16
*CAP
1 *198:CLK 0.000174136
2 *200:X 0.000174136
3 *198:CLK *185:A 0.000667305
4 *198:CLK *67:10 0.000454231
*RES
1 *200:X *198:CLK 11.705 
*END

*D_NET *50 0.000928704
*CONN
*I *197:CLK I *D sky130_fd_sc_hd__dfrtp_1
*I *201:X O *D sky130_fd_sc_hd__clkbuf_16
*CAP
1 *197:CLK 0.000436032
2 *201:X 0.000436032
3 *197:CLK *193:A 4.60922e-05
4 *197:CLK *197:RESET_B 1.05476e-05
*RES
1 *201:X *197:CLK 13.8 
*END

*D_NET *51 0.00031408
*CONN
*I *190:B I *D sky130_fd_sc_hd__xor2_1
*I *204:X O *D sky130_fd_sc_hd__clkbuf_1
*CAP
1 *190:B 0.00015704
2 *204:X 0.00015704
*RES
1 *204:X *190:B 5.39 
*END

*D_NET *52 0.000683816
*CONN
*I *181:B I *D sky130_fd_sc_hd__nand2_1
*I *180:B I *D sky130_fd_sc_hd__or2_1
*I *205:X O *D sky130_fd_sc_hd__clkbuf_1
*CAP
1 *181:B 6.56273e-05
2 *180:B 0.000207959
3 *205:X 0
4 *52:4 0.000273586
5 *180:B *193:B 2.26018e-05
6 *181:B *181:A 0
7 *181:B *193:B 5.30673e-05
8 *189:D *180:B 0
9 *205:A *180:B 4.85494e-05
10 *205:A *181:B 5.4155e-06
11 *206:A *180:B 7.00889e-06
*RES
1 *205:X *52:4 1.6 
2 *52:4 *180:B 8.555 
3 *52:4 *181:B 3.01 
*END

*D_NET *53 0.0013153
*CONN
*I *193:B I *D sky130_fd_sc_hd__xor2_1
*I *206:X O *D sky130_fd_sc_hd__clkbuf_1
*CAP
1 *193:B 0.000362113
2 *206:X 0.000362113
3 *193:B *178:B 0.000127408
4 *193:B *181:A 9.74355e-05
5 *180:B *193:B 2.26018e-05
6 *181:B *193:B 5.30673e-05
7 *194:C *193:B 0.000229203
8 *195:B *193:B 1.1392e-05
9 *205:A *193:B 4.99619e-05
*RES
1 *206:X *193:B 14.79 
*END

*D_NET *54 0.000509257
*CONN
*I *182:B I *D sky130_fd_sc_hd__nand2_1
*I *183:B I *D sky130_fd_sc_hd__or2_1
*I *207:X O *D sky130_fd_sc_hd__clkbuf_1
*CAP
1 *182:B 0.000120448
2 *183:B 0
3 *207:X 8.69736e-05
4 *54:8 0.000207422
5 *182:B *183:A 8.18083e-05
6 *182:B *66:14 1.26044e-05
*RES
1 *207:X *54:8 2.755 
2 *54:8 *183:B 1.6 
3 *54:8 *182:B 3.79 
*END

*D_NET *55 0.00522384
*CONN
*I *190:A I *D sky130_fd_sc_hd__xor2_1
*I *208:X O *D sky130_fd_sc_hd__buf_1
*CAP
1 *190:A 0.00161773
2 *208:X 0.00161773
3 *190:A *178:B 0.000268176
4 *190:A *191:A 0.00110616
5 *189:C *190:A 0.000308052
6 *189:D *190:A 0.000305998
*RES
1 *208:X *190:A 32.025 
*END

*D_NET *56 0.00366331
*CONN
*I *179:A I *D sky130_fd_sc_hd__xor2_1
*I *209:X O *D sky130_fd_sc_hd__buf_1
*CAP
1 *179:A 0.00177108
2 *209:X 0.00177108
3 *184:C1 *179:A 1.79174e-05
4 *208:A *179:A 0.000103238
*RES
1 *209:X *179:A 33.87 
*END

*D_NET *57 0.00349518
*CONN
*I *191:A I *D sky130_fd_sc_hd__xor2_1
*I *210:X O *D sky130_fd_sc_hd__buf_1
*CAP
1 *191:A 0.00105097
2 *210:X 0.00105097
3 *191:A *178:B 0.000232442
4 *191:A *188:B 1.79174e-05
5 *190:A *191:A 0.00110616
6 *209:A *191:A 3.67085e-05
*RES
1 *210:X *191:A 30.885 
*END

*D_NET *58 0.00467006
*CONN
*I *187:A I *D sky130_fd_sc_hd__xor2_1
*I *211:X O *D sky130_fd_sc_hd__buf_1
*CAP
1 *187:A 0.00137384
2 *211:X 0.00137384
3 *187:A *188:A 0.00187163
4 *189:C *187:A 5.07419e-05
*RES
1 *211:X *187:A 27.245 
*END

*D_NET *59 0.00353203
*CONN
*I *188:A I *D sky130_fd_sc_hd__xor2_1
*I *212:X O *D sky130_fd_sc_hd__buf_1
*CAP
1 *188:A 0.000830202
2 *212:X 0.000830202
3 *187:A *188:A 0.00187163
*RES
1 *212:X *188:A 23 
*END

*D_NET *60 0.00549676
*CONN
*I *185:A I *D sky130_fd_sc_hd__xor2_1
*I *213:X O *D sky130_fd_sc_hd__buf_1
*CAP
1 *185:A 0.00141804
2 *213:X 0.00141804
3 *185:A *185:B 9.91257e-05
4 *185:A *67:10 5.56109e-05
5 *185:A *68:8 0.0001249
6 *189:A *185:A 0.000173569
7 *196:A2 *185:A 0.000237249
8 *198:CLK *185:A 0.000667305
9 *198:D *185:A 0.00101176
10 *199:A *185:A 2.67022e-05
11 *225:A *185:A 0.000264467
*RES
1 *213:X *185:A 33.165 
*END

*D_NET *61 0.00476701
*CONN
*I *192:A I *D sky130_fd_sc_hd__xor2_1
*I *214:X O *D sky130_fd_sc_hd__buf_1
*CAP
1 *192:A 0.0016319
2 *214:X 0.0016319
3 *192:A *228:A 0.000674358
4 *194:C *192:A 0.000198945
5 *197:D *192:A 0.000518351
6 *213:A *192:A 4.82863e-05
7 *227:A *192:A 6.32751e-05
*RES
1 *214:X *192:A 28.655 
*END

*D_NET *62 0.000258746
*CONN
*I *179:B I *D sky130_fd_sc_hd__xor2_1
*I *215:X O *D sky130_fd_sc_hd__clkbuf_1
*CAP
1 *179:B 0.000103006
2 *215:X 0.000103006
3 *184:C1 *179:B 3.72081e-05
4 *204:A *179:B 1.55253e-05
*RES
1 *215:X *179:B 9.03 
*END

*D_NET *63 0.00436093
*CONN
*I *186:A I *D sky130_fd_sc_hd__xor2_1
*I *216:X O *D sky130_fd_sc_hd__buf_1
*CAP
1 *186:A 0.00164461
2 *216:X 0.00164461
3 *186:A *186:B 0.000316415
4 *186:A *202:A 0.000208003
5 *186:A *69:10 6.62095e-05
6 *189:B *186:A 0.000164874
7 *199:A *186:A 0.00019639
8 *216:A *186:A 5.21046e-05
9 *48:8 *186:A 6.77062e-05
*RES
1 *216:X *186:A 34.23 
*END

*D_NET *64 0.00606462
*CONN
*I *181:A I *D sky130_fd_sc_hd__nand2_1
*I *180:A I *D sky130_fd_sc_hd__or2_1
*I *217:X O *D sky130_fd_sc_hd__clkbuf_1
*CAP
1 *181:A 0.000178639
2 *180:A 0.000337261
3 *217:X 0.00154043
4 *64:6 0.00205633
5 *64:6 *193:A 0.00132013
6 *181:B *181:A 0
7 *184:A1 *180:A 4.40446e-05
8 *184:A2 *180:A 1.54111e-05
9 *184:A2 *181:A 5.77162e-05
10 *184:B1 *180:A 4.82863e-05
11 *184:B2 *180:A 1.34967e-05
12 *189:C *181:A 0.00010829
13 *193:B *181:A 9.74355e-05
14 *194:C *181:A 0.000204119
15 *194:D *181:A 9.12494e-06
16 *195:A *180:A 2.47313e-05
17 *195:A *64:6 9.17504e-06
*RES
1 *217:X *64:6 22.75 
2 *64:6 *180:A 6.82 
3 *64:6 *181:A 10.295 
*END

*D_NET *65 0.0032928
*CONN
*I *193:A I *D sky130_fd_sc_hd__xor2_1
*I *218:X O *D sky130_fd_sc_hd__buf_1
*CAP
1 *193:A 0.000904091
2 *218:X 0.000904091
3 *195:A *193:A 4.92935e-05
4 *196:A2 *193:A 3.03775e-05
5 *197:CLK *193:A 4.60922e-05
6 *201:A *193:A 2.75145e-05
7 *218:A *193:A 1.12156e-05
8 *64:6 *193:A 0.00132013
*RES
1 *218:X *193:A 29.055 
*END

*D_NET *66 0.00385988
*CONN
*I *182:A I *D sky130_fd_sc_hd__nand2_1
*I *183:A I *D sky130_fd_sc_hd__or2_1
*I *219:X O *D sky130_fd_sc_hd__buf_1
*CAP
1 *182:A 0
2 *183:A 0.00011445
3 *219:X 0.00165827
4 *66:14 0.00177272
5 *182:B *183:A 8.18083e-05
6 *182:B *66:14 1.26044e-05
7 *184:B1 *183:A 2.49909e-05
8 *184:B2 *183:A 2.69217e-05
9 *194:C *66:14 2.10905e-05
10 *194:D *66:14 0.000121659
11 *195:C *66:14 2.53645e-05
*RES
1 *219:X *66:14 29.27 
2 *66:14 *183:A 4.15 
3 *66:14 *182:A 1.6 
*END

*D_NET *67 0.00303035
*CONN
*I *197:RESET_B I *D sky130_fd_sc_hd__dfrtp_1
*I *198:RESET_B I *D sky130_fd_sc_hd__dfrtp_1
*I *220:X O *D sky130_fd_sc_hd__buf_1
*CAP
1 *197:RESET_B 0.000293104
2 *198:RESET_B 4.69795e-05
3 *220:X 0.000799939
4 *67:10 0.00114002
5 *185:A *67:10 5.56109e-05
6 *197:CLK *197:RESET_B 1.05476e-05
7 *197:D *197:RESET_B 0.000113562
8 *198:CLK *67:10 0.000454231
9 *198:D *198:RESET_B 4.54998e-05
10 *198:D *67:10 7.08554e-05
*RES
1 *220:X *67:10 14.245 
2 *67:10 *198:RESET_B 0.7425 
3 *67:10 *197:RESET_B 8.6875 
*END

*D_NET *68 0.00234966
*CONN
*I *228:A I *D sky130_fd_sc_hd__buf_2
*I *203:A I *D sky130_fd_sc_hd__dlygate4sd3_1
*I *198:Q O *D sky130_fd_sc_hd__dfrtp_1
*CAP
1 *228:A 0.000595482
2 *203:A 6.0259e-05
3 *198:Q 8.10783e-05
4 *68:8 0.000736819
5 *185:A *68:8 0.0001249
6 *192:A *228:A 0.000674358
7 *196:A2 *203:A 4.43871e-06
8 *196:A2 *228:A 3.23391e-05
9 *227:A *228:A 3.99879e-05
*RES
1 *198:Q *68:8 4.74 
2 *68:8 *203:A 4.47 
3 *68:8 *228:A 12.345 
*END

*D_NET *69 0.00159585
*CONN
*I *178:A I *D sky130_fd_sc_hd__xor2_1
*I *196:B1 I *D sky130_fd_sc_hd__o21a_1
*I *202:X O *D sky130_fd_sc_hd__dlygate4sd3_1
*CAP
1 *178:A 0
2 *196:B1 0.000276622
3 *202:X 0.000293077
4 *69:10 0.0005697
5 *196:B1 *178:B 3.25831e-05
6 *69:10 *178:B 0.000118513
7 *69:10 *202:A 7.35813e-05
8 *186:A *69:10 6.62095e-05
9 *194:C *196:B1 1.71013e-05
10 *194:C *69:10 6.18754e-05
11 *196:A2 *196:B1 0
12 *198:D *196:B1 8.65905e-05
13 *226:A *196:B1 0
*RES
1 *202:X *69:10 8.19 
2 *69:10 *196:B1 7.695 
3 *69:10 *178:A 3.6 
*END

*D_NET *70 8.68287e-05
*CONN
*I *196:A1 I *D sky130_fd_sc_hd__o21a_1
*I *203:X O *D sky130_fd_sc_hd__dlygate4sd3_1
*CAP
1 *196:A1 1.84334e-05
2 *203:X 1.84334e-05
3 *198:D *196:A1 4.99619e-05
*RES
1 *203:X *196:A1 3.65 
*END

*D_NET *71 0.000245526
*CONN
*I *191:B I *D sky130_fd_sc_hd__xor2_1
*I *221:X O *D sky130_fd_sc_hd__clkbuf_1
*CAP
1 *191:B 5.83213e-05
2 *221:X 5.83213e-05
3 *191:B *178:B 5.66481e-05
4 *191:B *188:B 7.22354e-05
5 *224:A *191:B 0
*RES
1 *221:X *191:B 4.805 
*END

*D_NET *72 0.000156148
*CONN
*I *187:B I *D sky130_fd_sc_hd__xor2_1
*I *222:X O *D sky130_fd_sc_hd__clkbuf_1
*CAP
1 *187:B 7.80739e-05
2 *222:X 7.80739e-05
*RES
1 *222:X *187:B 4.355 
*END

*D_NET *73 0.00100785
*CONN
*I *188:B I *D sky130_fd_sc_hd__xor2_1
*I *223:X O *D sky130_fd_sc_hd__clkbuf_1
*CAP
1 *188:B 0.000371761
2 *223:X 0.000371761
3 *188:B *178:B 1.46537e-05
4 *189:C *188:B 9.37731e-05
5 *191:A *188:B 1.79174e-05
6 *191:B *188:B 7.22354e-05
7 *221:A *188:B 3.57083e-05
8 *224:A *188:B 3.00381e-05
*RES
1 *223:X *188:B 12.48 
*END

*D_NET *74 0.00321239
*CONN
*I *178:B I *D sky130_fd_sc_hd__xor2_1
*I *224:X O *D sky130_fd_sc_hd__buf_1
*CAP
1 *178:B 0.0007631
2 *224:X 0.0007631
3 *188:B *178:B 1.46537e-05
4 *190:A *178:B 0.000268176
5 *191:A *178:B 0.000232442
6 *191:B *178:B 5.66481e-05
7 *193:B *178:B 0.000127408
8 *194:A *178:B 0.000178946
9 *194:B *178:B 0.000295623
10 *194:C *178:B 0.000113051
11 *195:B *178:B 0
12 *195:C *178:B 0
13 *196:A2 *178:B 0.000199203
14 *196:B1 *178:B 3.25831e-05
15 *221:A *178:B 4.89395e-05
16 *69:10 *178:B 0.000118513
*RES
1 *224:X *178:B 26.385 
*END

*D_NET *75 0.000311504
*CONN
*I *185:B I *D sky130_fd_sc_hd__xor2_1
*I *225:X O *D sky130_fd_sc_hd__clkbuf_1
*CAP
1 *185:B 8.12082e-05
2 *225:X 8.12082e-05
3 *185:A *185:B 9.91257e-05
4 *189:A *185:B 4.99619e-05
*RES
1 *225:X *185:B 5.045 
*END

*D_NET *76 0.000329029
*CONN
*I *192:B I *D sky130_fd_sc_hd__xor2_1
*I *226:X O *D sky130_fd_sc_hd__clkbuf_1
*CAP
1 *192:B 0.000128198
2 *226:X 0.000128198
3 *192:B *186:B 1.83847e-05
4 *226:A *192:B 5.42473e-05
5 *227:A *192:B 0
*RES
1 *226:X *192:B 9.285 
*END

*D_NET *77 0.000847564
*CONN
*I *186:B I *D sky130_fd_sc_hd__xor2_1
*I *227:X O *D sky130_fd_sc_hd__clkbuf_1
*CAP
1 *186:B 0.000156804
2 *227:X 0.000156804
3 *186:A *186:B 0.000316415
4 *189:A *186:B 7.89689e-05
5 *192:B *186:B 1.83847e-05
6 *226:A *186:B 0.000120186
*RES
1 *227:X *186:B 11.7 
*END

*D_NET *78 0.000721152
*CONN
*I *202:A I *D sky130_fd_sc_hd__dlygate4sd3_1
*I *197:Q O *D sky130_fd_sc_hd__dfrtp_1
*CAP
1 *202:A 0.000187408
2 *197:Q 0.000187408
3 *186:A *202:A 0.000208003
4 *196:A2 *202:A 6.47516e-05
5 *69:10 *202:A 7.35813e-05
*RES
1 *197:Q *202:A 11.79 
*END
