*SPEF "ieee 1481-1999"
*DESIGN "decode_input"
*DATE "19:23:16 Friday January 16, 2026"
*VENDOR "The OpenROAD Project"
*PROGRAM "OpenROAD"
*VERSION "edf00dff99f6c40d67a30c0e22a8191c5d2ed9d6"
*DESIGN_FLOW "NAME_SCOPE LOCAL" "PIN_CAP NONE"
*DIVIDER /
*DELIMITER :
*BUS_DELIMITER []
*T_UNIT 1 NS
*C_UNIT 1 PF
*R_UNIT 1 OHM
*L_UNIT 1 HENRY

*NAME_MAP
*3 button_dec
*4 button_inc
*5 dec[0]
*6 dec[1]
*7 dec[2]
*8 dec[3]
*9 dec[4]
*10 dec[5]
*11 done_dec[0]
*12 done_dec[1]
*13 done_dec[2]
*14 done_dec[3]
*15 done_dec[4]
*16 done_inc[0]
*17 done_inc[1]
*18 done_inc[2]
*19 done_inc[3]
*20 done_inc[4]
*21 en[0]
*22 en[1]
*23 en[2]
*24 en[3]
*25 en[4]
*26 en[5]
*27 inc[0]
*28 inc[1]
*29 inc[2]
*30 inc[3]
*31 inc[4]
*32 inc[5]
*33 mode[0]
*34 mode[1]
*35 select[0]
*36 select[1]
*37 select[2]
*38 select[3]
*39 select[4]
*40 select[5]
*41 _00_
*42 _01_
*43 _02_
*44 _03_
*45 _04_
*46 net1
*47 net10
*48 net11
*49 net12
*50 net13
*51 net14
*52 net15
*53 net16
*54 net17
*55 net18
*56 net19
*57 net2
*58 net20
*59 net21
*60 net22
*61 net23
*62 net24
*63 net25
*64 net26
*65 net27
*66 net28
*67 net29
*68 net3
*69 net30
*70 net31
*71 net32
*72 net33
*73 net34
*74 net35
*75 net36
*76 net37
*77 net38
*78 net39
*79 net4
*80 net40
*81 net5
*82 net6
*83 net7
*84 net8
*85 net9
*86 FILLER_0_11
*87 FILLER_0_17
*88 FILLER_0_21
*89 FILLER_0_27
*90 FILLER_0_32
*91 FILLER_0_41
*92 FILLER_0_47
*93 FILLER_0_51
*94 FILLER_0_55
*95 FILLER_0_57
*96 FILLER_0_6
*97 FILLER_0_61
*98 FILLER_0_67
*99 FILLER_0_71
*100 FILLER_1_15
*101 FILLER_1_27
*102 FILLER_1_3
*103 FILLER_1_39
*104 FILLER_1_51
*105 FILLER_1_55
*106 FILLER_1_57
*107 FILLER_1_69
*108 FILLER_2_15
*109 FILLER_2_27
*110 FILLER_2_29
*111 FILLER_2_3
*112 FILLER_2_41
*113 FILLER_2_53
*114 FILLER_2_65
*115 FILLER_2_77
*116 FILLER_3_15
*117 FILLER_3_27
*118 FILLER_3_3
*119 FILLER_3_39
*120 FILLER_3_51
*121 FILLER_3_55
*122 FILLER_3_57
*123 FILLER_3_69
*124 FILLER_4_15
*125 FILLER_4_27
*126 FILLER_4_29
*127 FILLER_4_3
*128 FILLER_4_41
*129 FILLER_4_53
*130 FILLER_4_65
*131 FILLER_4_77
*132 FILLER_5_15
*133 FILLER_5_27
*134 FILLER_5_3
*135 FILLER_5_39
*136 FILLER_5_51
*137 FILLER_5_55
*138 FILLER_5_57
*139 FILLER_5_63
*140 FILLER_5_69
*141 FILLER_6_15
*142 FILLER_6_27
*143 FILLER_6_29
*144 FILLER_6_3
*145 FILLER_6_42
*146 FILLER_6_48
*147 FILLER_6_56
*148 FILLER_6_80
*149 FILLER_7_18
*150 FILLER_7_33
*151 FILLER_7_42
*152 FILLER_7_48
*153 FILLER_7_55
*154 FILLER_7_57
*155 FILLER_7_6
*156 FILLER_7_73
*157 FILLER_7_78
*158 FILLER_8_3
*159 FILLER_8_35
*160 FILLER_9_3
*161 FILLER_9_41
*162 FILLER_9_80
*163 PHY_EDGE_ROW_0_Left_10
*164 PHY_EDGE_ROW_0_Right_0
*165 PHY_EDGE_ROW_1_Left_11
*166 PHY_EDGE_ROW_1_Right_1
*167 PHY_EDGE_ROW_2_Left_12
*168 PHY_EDGE_ROW_2_Right_2
*169 PHY_EDGE_ROW_3_Left_13
*170 PHY_EDGE_ROW_3_Right_3
*171 PHY_EDGE_ROW_4_Left_14
*172 PHY_EDGE_ROW_4_Right_4
*173 PHY_EDGE_ROW_5_Left_15
*174 PHY_EDGE_ROW_5_Right_5
*175 PHY_EDGE_ROW_6_Left_16
*176 PHY_EDGE_ROW_6_Right_6
*177 PHY_EDGE_ROW_7_Left_17
*178 PHY_EDGE_ROW_7_Right_7
*179 PHY_EDGE_ROW_8_Left_18
*180 PHY_EDGE_ROW_8_Right_8
*181 PHY_EDGE_ROW_9_Left_19
*182 PHY_EDGE_ROW_9_Right_9
*183 TAP_TAPCELL_ROW_0_20
*184 TAP_TAPCELL_ROW_0_21
*185 TAP_TAPCELL_ROW_1_22
*186 TAP_TAPCELL_ROW_2_23
*187 TAP_TAPCELL_ROW_3_24
*188 TAP_TAPCELL_ROW_4_25
*189 TAP_TAPCELL_ROW_5_26
*190 TAP_TAPCELL_ROW_6_27
*191 TAP_TAPCELL_ROW_7_28
*192 TAP_TAPCELL_ROW_8_29
*193 TAP_TAPCELL_ROW_9_30
*194 TAP_TAPCELL_ROW_9_31
*195 _05_
*196 _06_
*197 _07_
*198 _08_
*199 _09_
*200 _10_
*201 _11_
*202 _12_
*203 _13_
*204 _14_
*205 _15_
*206 _16_
*207 _17_
*208 _18_
*209 _19_
*210 _20_
*211 _21_
*212 _22_
*213 _23_
*214 _24_
*215 _25_
*216 _26_
*217 _27_
*218 fanout39
*219 fanout40
*220 input1
*221 input10
*222 input11
*223 input12
*224 input13
*225 input14
*226 input15
*227 input16
*228 input17
*229 input18
*230 input19
*231 input2
*232 input20
*233 input3
*234 input4
*235 input5
*236 input6
*237 input7
*238 input8
*239 input9
*240 output21
*241 output22
*242 output23
*243 output24
*244 output25
*245 output26
*246 output27
*247 output28
*248 output29
*249 output30
*250 output31
*251 output32
*252 output33
*253 output34
*254 output35
*255 output36
*256 output37
*257 output38

*PORTS
button_dec I
button_inc I
dec[0] O
dec[1] O
dec[2] O
dec[3] O
dec[4] O
dec[5] O
done_dec[0] I
done_dec[1] I
done_dec[2] I
done_dec[3] I
done_dec[4] I
done_inc[0] I
done_inc[1] I
done_inc[2] I
done_inc[3] I
done_inc[4] I
en[0] O
en[1] O
en[2] O
en[3] O
en[4] O
en[5] O
inc[0] O
inc[1] O
inc[2] O
inc[3] O
inc[4] O
inc[5] O
mode[0] I
mode[1] I
select[0] I
select[1] I
select[2] I
select[3] I
select[4] I
select[5] I

*D_NET *3 0.00142909
*CONN
*P button_dec I
*I *220:A I *D sky130_fd_sc_hd__buf_1
*CAP
1 button_dec 0.000668693
2 *220:A 0
3 *3:11 0.000668693
4 *3:11 *231:A 8.57986e-05
5 *3:11 *46:10 5.90675e-06
*RES
1 button_dec *3:11 29.4586 
2 *3:11 *220:A 23 
*END

*D_NET *4 0.00106353
*CONN
*P button_inc I
*I *231:A I *D sky130_fd_sc_hd__buf_1
*CAP
1 button_inc 0.000488865
2 *231:A 0.000488865
3 *231:A *232:A 0
4 *3:11 *231:A 8.57986e-05
*RES
1 button_inc *231:A 48.5643 
*END

*D_NET *5 0.00283946
*CONN
*P dec[0] O
*I *240:X O *D sky130_fd_sc_hd__buf_2
*CAP
1 dec[0] 0.000535378
2 *240:X 0.000270682
3 *5:10 0.000806059
4 dec[0] dec[1] 0
5 dec[0] inc[4] 3.81304e-05
6 dec[0] inc[5] 0.000652944
7 dec[0] *44:43 5.62433e-05
8 dec[0] *46:30 7.71928e-05
9 dec[0] *59:8 3.47781e-05
10 dec[0] *78:31 2.71291e-05
11 dec[0] *78:66 0.000107641
12 dec[0] *79:36 2.26489e-05
13 *5:10 *240:A 0.000182797
14 *5:10 *82:12 2.78327e-05
*RES
1 *240:X *5:10 41.625 
2 *5:10 dec[0] 14.6036 
*END

*D_NET *6 0.00286147
*CONN
*P dec[1] O
*I *241:X O *D sky130_fd_sc_hd__buf_2
*CAP
1 dec[1] 0.000493998
2 *241:X 0.000414142
3 *6:8 0.00090814
4 dec[1] dec[2] 0.000215596
5 dec[1] *64:10 1.01436e-05
6 dec[1] *79:36 6.7177e-06
7 dec[1] *80:53 2.49836e-05
8 dec[1] *80:66 2.96051e-05
9 dec[1] *81:24 0.000262829
10 *6:8 *208:A1 2.02872e-05
11 *6:8 *63:10 0.000475031
12 dec[0] dec[1] 0
*RES
1 *241:X *6:8 43.8621 
2 *6:8 dec[1] 12.2629 
*END

*D_NET *7 0.00253815
*CONN
*P dec[2] O
*I *242:X O *D sky130_fd_sc_hd__buf_2
*CAP
1 dec[2] 0.000447915
2 *242:X 0.000157762
3 *7:8 0.000605677
4 dec[2] dec[3] 0.000218362
5 dec[2] *68:12 9.62666e-05
6 dec[2] *77:16 0.000563675
7 dec[2] *81:24 4.6318e-06
8 *7:8 en[0] 0.000112895
9 *7:8 en[1] 0.000115371
10 dec[1] dec[2] 0.000215596
*RES
1 *242:X *7:8 41.3143 
2 *7:8 dec[2] 45.08 
*END

*D_NET *8 0.00280616
*CONN
*P dec[3] O
*I *243:X O *D sky130_fd_sc_hd__buf_2
*CAP
1 dec[3] 0.000523751
2 *243:X 0.000237332
3 *8:10 0.000761083
4 dec[3] dec[4] 0.000286726
5 dec[3] dec[5] 0
6 dec[3] *68:22 0.000342517
7 dec[3] *80:104 0.000312098
8 dec[3] *81:24 0
9 *8:10 *245:A 9.24795e-06
10 *8:10 *10:10 5.67058e-05
11 *8:10 *62:8 5.83407e-05
12 *8:10 *68:22 0
13 dec[2] dec[3] 0.000218362
*RES
1 *243:X *8:10 41.625 
2 *8:10 dec[3] 15.08 
*END

*D_NET *9 0.0022628
*CONN
*P dec[4] O
*I *244:X O *D sky130_fd_sc_hd__buf_2
*CAP
1 dec[4] 0.000359681
2 *244:X 0.000446909
3 *9:8 0.00080659
4 dec[4] dec[5] 0
5 dec[4] *68:22 0.000185755
6 *9:8 *242:A 7.9199e-05
7 *9:8 *257:A 6.17437e-06
8 *9:8 *63:10 9.17645e-05
9 dec[3] dec[4] 0.000286726
*RES
1 *244:X *9:8 43.8621 
2 *9:8 dec[4] 10.0257 
*END

*D_NET *10 0.00229249
*CONN
*P dec[5] O
*I *245:X O *D sky130_fd_sc_hd__buf_2
*CAP
1 dec[5] 0.00062025
2 *245:X 0.000112054
3 *10:10 0.000732304
4 dec[5] en[0] 0.00050262
5 dec[5] en[1] 0
6 dec[5] *60:8 7.7086e-05
7 dec[5] *68:22 0
8 *10:10 *245:A 0.00014196
9 *10:10 *21:10 4.95081e-05
10 dec[3] dec[5] 0
11 dec[4] dec[5] 0
12 *8:10 *10:10 5.67058e-05
*RES
1 *245:X *10:10 41.0243 
2 *10:10 dec[5] 14.7279 
*END

*D_NET *11 0.00201562
*CONN
*P done_dec[0] I
*I *233:A I *D sky130_fd_sc_hd__clkbuf_1
*CAP
1 done_dec[0] 0.000548881
2 *233:A 0
3 *11:13 0.000548881
4 *11:13 *12:13 0
5 *11:13 *15:21 2.93845e-05
6 *11:13 *20:13 0.000447522
7 *11:13 *49:6 0.000300203
8 *11:13 *81:10 0.000140746
*RES
1 done_dec[0] *11:13 29.8314 
2 *11:13 *233:A 23 
*END

*D_NET *12 0.00197313
*CONN
*P done_dec[1] I
*I *234:A I *D sky130_fd_sc_hd__clkbuf_1
*CAP
1 done_dec[1] 0.000601942
2 *234:A 0
3 *12:13 0.000601942
4 *12:13 *13:15 0.00033987
5 *12:13 *14:19 5.67058e-05
6 *12:13 *19:9 0
7 *12:13 *45:35 6.38845e-05
8 *12:13 *47:10 0.000103637
9 *12:13 *48:8 7.42621e-05
10 *12:13 *81:10 0
11 *12:13 *84:12 2.31209e-05
12 *12:13 *84:26 0.000107763
13 *11:13 *12:13 0
*RES
1 done_dec[1] *12:13 31.095 
2 *12:13 *234:A 23 
*END

*D_NET *13 0.00244963
*CONN
*P done_dec[2] I
*I *235:A I *D sky130_fd_sc_hd__clkbuf_1
*CAP
1 done_dec[2] 0.000757918
2 *235:A 0
3 *13:15 0.000757918
4 *13:15 *14:19 0
5 *13:15 *19:9 0.000135547
6 *13:15 *68:8 0.000137788
7 *13:15 *68:12 2.42041e-05
8 *13:15 *81:18 0.000259361
9 *13:15 *84:26 3.70187e-05
10 *12:13 *13:15 0.00033987
*RES
1 done_dec[2] *13:15 46.2607 
2 *13:15 *235:A 38 
*END

*D_NET *14 0.00258508
*CONN
*P done_dec[3] I
*I *236:A I *D sky130_fd_sc_hd__clkbuf_1
*CAP
1 done_dec[3] 0.000716381
2 *236:A 0
3 *14:19 0.000716381
4 *14:19 *252:A 5.50106e-05
5 *14:19 *15:21 0.000392524
6 *14:19 *42:21 0
7 *14:19 *42:42 5.62433e-05
8 *14:19 *45:46 6.16439e-05
9 *14:19 *47:10 0.000170575
10 *14:19 *48:8 0.000153167
11 *14:19 *82:12 0.000181131
12 *14:19 *84:26 7.75329e-06
13 *14:19 *85:16 1.75666e-05
14 *12:13 *14:19 5.67058e-05
15 *13:15 *14:19 0
*RES
1 done_dec[3] *14:19 32.9593 
2 *14:19 *236:A 23 
*END

*D_NET *15 0.00288683
*CONN
*P done_dec[4] I
*I *237:A I *D sky130_fd_sc_hd__clkbuf_1
*CAP
1 done_dec[4] 0.000670668
2 *237:A 0
3 *15:21 0.000670668
4 *15:21 inc[0] 0.000229032
5 *15:21 *212:A2 4.00259e-06
6 *15:21 *42:21 2.96154e-05
7 *15:21 *42:34 5.72749e-05
8 *15:21 *45:46 6.16439e-05
9 *15:21 *49:6 3.58084e-06
10 *15:21 *77:10 0.000223698
11 *15:21 *81:10 6.17437e-06
12 *15:21 *83:8 0.00050856
13 *11:13 *15:21 2.93845e-05
14 *14:19 *15:21 0.000392524
*RES
1 done_dec[4] *15:21 35.3829 
2 *15:21 *237:A 23 
*END

*D_NET *16 0.00169441
*CONN
*P done_inc[0] I
*I *238:A I *D sky130_fd_sc_hd__clkbuf_1
*CAP
1 done_inc[0] 0.000660155
2 *238:A 0
3 *16:11 0.000660155
4 *16:11 *17:9 0.000374104
5 *16:11 *85:8 0
*RES
1 done_inc[0] *16:11 31.9857 
2 *16:11 *238:A 23 
*END

*D_NET *17 0.00144353
*CONN
*P done_inc[1] I
*I *239:A I *D sky130_fd_sc_hd__clkbuf_1
*CAP
1 done_inc[1] 0.000349417
2 *239:A 0
3 *17:9 0.000349417
4 *17:9 *18:9 0.000370593
5 *16:11 *17:9 0.000374104
*RES
1 done_inc[1] *17:9 28.8993 
2 *17:9 *239:A 23 
*END

*D_NET *18 0.0016025
*CONN
*P done_inc[2] I
*I *221:A I *D sky130_fd_sc_hd__clkbuf_1
*CAP
1 done_inc[2] 0.000333101
2 *221:A 0
3 *18:9 0.000333101
4 *18:9 *19:9 0.000264294
5 *18:9 *68:8 0.000301409
6 *17:9 *18:9 0.000370593
*RES
1 done_inc[2] *18:9 28.8993 
2 *18:9 *221:A 23 
*END

*D_NET *19 0.00200361
*CONN
*P done_inc[3] I
*I *222:A I *D sky130_fd_sc_hd__clkbuf_1
*CAP
1 done_inc[3] 0.000341241
2 *222:A 0
3 *19:9 0.000341241
4 *19:9 *20:13 0.000810243
5 *19:9 *68:8 8.25644e-05
6 *19:9 *81:10 2.84809e-05
7 *19:9 *84:12 0
8 *12:13 *19:9 0
9 *13:15 *19:9 0.000135547
10 *18:9 *19:9 0.000264294
*RES
1 done_inc[3] *19:9 28.8993 
2 *19:9 *222:A 23 
*END

*D_NET *20 0.00239119
*CONN
*P done_inc[4] I
*I *223:A I *D sky130_fd_sc_hd__clkbuf_1
*CAP
1 done_inc[4] 0.000460119
2 *223:A 0
3 *20:13 0.000460119
4 *20:13 *49:6 1.76557e-05
5 *20:13 *81:10 0.00019553
6 *11:13 *20:13 0.000447522
7 *19:9 *20:13 0.000810243
*RES
1 done_inc[4] *20:13 30.5357 
2 *20:13 *223:A 23 
*END

*D_NET *21 0.00219893
*CONN
*P en[0] O
*I *246:X O *D sky130_fd_sc_hd__buf_2
*CAP
1 en[0] 0.000521199
2 *246:X 0.000194514
3 *21:10 0.000715713
4 en[0] en[1] 0
5 *21:10 *245:A 5.67058e-05
6 *21:10 *22:8 4.57742e-05
7 dec[5] en[0] 0.00050262
8 *7:8 en[0] 0.000112895
9 *10:10 *21:10 4.95081e-05
*RES
1 *246:X *21:10 41.9771 
2 *21:10 en[0] 13.5471 
*END

*D_NET *22 0.00238946
*CONN
*P en[1] O
*I *247:X O *D sky130_fd_sc_hd__buf_2
*CAP
1 en[1] 0.000576093
2 *247:X 0.000301756
3 *22:8 0.000877849
4 en[1] en[2] 0.0003057
5 en[1] *257:A 7.56417e-05
6 en[1] *65:16 6.48142e-05
7 *22:8 *247:A 2.64616e-05
8 dec[5] en[1] 0
9 en[0] en[1] 0
10 *7:8 en[1] 0.000115371
11 *21:10 *22:8 4.57742e-05
*RES
1 *247:X *22:8 41.48 
2 *22:8 en[1] 15.08 
*END

*D_NET *23 0.00227045
*CONN
*P en[2] O
*I *248:X O *D sky130_fd_sc_hd__buf_2
*CAP
1 en[2] 0.000437352
2 *248:X 4.5791e-05
3 *23:8 0.000483143
4 en[2] en[3] 0.000487994
5 en[2] *257:A 0.000161121
6 en[2] *32:10 8.62783e-05
7 en[2] *65:16 6.93449e-05
8 en[2] *66:10 0.000138718
9 *23:8 *25:12 5.50049e-05
10 en[1] en[2] 0.0003057
*RES
1 *248:X *23:8 38.6214 
2 *23:8 en[2] 16.1364 
*END

*D_NET *24 0.00345211
*CONN
*P en[3] O
*I *249:X O *D sky130_fd_sc_hd__buf_2
*CAP
1 en[3] 0.000553265
2 *249:X 4.96719e-05
3 *24:8 0.000602937
4 en[3] en[4] 0.00118992
5 en[3] en[5] 3.74442e-05
6 en[3] *32:10 8.4047e-05
7 en[3] *66:10 0.000370859
8 en[3] *67:10 5.05552e-05
9 en[3] *69:10 2.5415e-05
10 en[2] en[3] 0.000487994
*RES
1 *249:X *24:8 38.6214 
2 *24:8 en[3] 21.2943 
*END

*D_NET *25 0.00360523
*CONN
*P en[4] O
*I *250:X O *D sky130_fd_sc_hd__buf_2
*CAP
1 en[4] 0.000325292
2 *250:X 0.000408171
3 *25:12 0.000733463
4 en[4] en[5] 0.000617478
5 *25:12 *203:B 6.73366e-05
6 *25:12 *251:A 0.000143655
7 *25:12 *26:8 5.08147e-05
8 *25:12 *65:16 1.40958e-05
9 en[3] en[4] 0.00118992
10 *23:8 *25:12 5.50049e-05
*RES
1 *250:X *25:12 44.9807 
2 *25:12 en[4] 16.0121 
*END

*D_NET *26 0.0037798
*CONN
*P en[5] O
*I *251:X O *D sky130_fd_sc_hd__buf_2
*CAP
1 en[5] 0.000638851
2 *251:X 0.000667444
3 *26:8 0.00130629
4 *26:8 *251:A 1.14762e-05
5 *26:8 *46:16 5.50049e-05
6 *26:8 *65:16 0.000394994
7 en[3] en[5] 3.74442e-05
8 en[4] en[5] 0.000617478
9 *25:12 *26:8 5.08147e-05
*RES
1 *251:X *26:8 47.1971 
2 *26:8 en[5] 17.8971 
*END

*D_NET *27 0.00234454
*CONN
*P inc[0] O
*I *252:X O *D sky130_fd_sc_hd__buf_2
*CAP
1 inc[0] 0.000585709
2 *252:X 0.000104401
3 *27:8 0.000690111
4 inc[0] inc[1] 0
5 inc[0] *42:10 5.94125e-05
6 inc[0] *42:21 0.000238185
7 inc[0] *42:34 0.000133316
8 inc[0] *45:10 2.71291e-05
9 inc[0] *45:23 0.000108263
10 inc[0] *84:26 2.96369e-05
11 *27:8 *48:8 0.000139346
12 *15:21 inc[0] 0.000229032
*RES
1 *252:X *27:8 39.5743 
2 *27:8 inc[0] 15.08 
*END

*D_NET *28 0.00244748
*CONN
*P inc[1] O
*I *253:X O *D sky130_fd_sc_hd__buf_2
*CAP
1 inc[1] 0.000529719
2 *253:X 0.000301311
3 *28:16 0.00083103
4 inc[1] inc[2] 0
5 inc[1] *45:23 3.3746e-05
6 inc[1] *77:10 0.000234545
7 inc[1] *84:26 0.000107822
8 *28:16 *256:A 5.56356e-05
9 *28:16 *29:10 2.58278e-05
10 *28:16 *45:10 6.79006e-05
11 *28:16 *45:23 0.000144203
12 *28:16 *76:8 8.50457e-05
13 *28:16 *79:28 3.06991e-05
14 inc[0] inc[1] 0
*RES
1 *253:X *28:16 44.5043 
2 *28:16 inc[1] 11.7864 
*END

*D_NET *29 0.00335051
*CONN
*P inc[2] O
*I *254:X O *D sky130_fd_sc_hd__buf_2
*CAP
1 inc[2] 0.000832364
2 *254:X 0.000236264
3 *29:10 0.00106863
4 inc[2] inc[3] 0.000813718
5 inc[2] *51:22 2.89247e-05
6 inc[2] *77:10 0
7 *29:10 *256:A 0.000183449
8 *29:10 *73:14 0.000123651
9 *29:10 *76:8 3.76854e-05
10 inc[1] inc[2] 0
11 *28:16 *29:10 2.58278e-05
*RES
1 *254:X *29:10 42.4846 
2 *29:10 inc[2] 28.0646 
*END

*D_NET *30 0.0025004
*CONN
*P inc[3] O
*I *255:X O *D sky130_fd_sc_hd__buf_2
*CAP
1 inc[3] 0.000491887
2 *255:X 4.78126e-05
3 *30:8 0.0005397
4 inc[3] inc[4] 0
5 inc[3] *42:68 0.000135547
6 inc[3] *73:14 0.000212377
7 inc[3] *74:14 4.66346e-05
8 inc[3] *75:10 0.000186264
9 inc[3] *77:10 0
10 *30:8 *255:A 2.64616e-05
11 inc[2] inc[3] 0.000813718
*RES
1 *255:X *30:8 38.6214 
2 *30:8 inc[3] 14.6036 
*END

*D_NET *31 0.00240944
*CONN
*P inc[4] O
*I *256:X O *D sky130_fd_sc_hd__buf_2
*CAP
1 inc[4] 0.000664085
2 *256:X 4.60886e-05
3 *31:8 0.000710174
4 inc[4] inc[5] 0.000342346
5 inc[4] *42:68 0
6 inc[4] *74:14 0
7 inc[4] *78:31 0.000133658
8 inc[4] *78:66 0.000206711
9 inc[4] *80:74 0.000212622
10 *31:8 *50:28 5.56279e-05
11 dec[0] inc[4] 3.81304e-05
12 inc[3] inc[4] 0
*RES
1 *256:X *31:8 38.6214 
2 *31:8 inc[4] 16.1364 
*END

*D_NET *32 0.0048748
*CONN
*P inc[5] O
*I *257:X O *D sky130_fd_sc_hd__buf_2
*CAP
1 inc[5] 0.000169994
2 *257:X 0.000146084
3 *32:16 0.00112594
4 *32:10 0.00110203
5 *32:10 *257:A 7.53384e-06
6 *32:16 *77:16 0.0011576
7 dec[0] inc[5] 0.000652944
8 en[2] *32:10 8.62783e-05
9 en[3] *32:10 8.4047e-05
10 inc[4] inc[5] 0.000342346
*RES
1 *257:X *32:10 40.2993 
2 *32:10 *32:16 43.9614 
3 *32:16 inc[5] 8.96929 
*END

*D_NET *33 0.00110264
*CONN
*P mode[0] I
*I *224:A I *D sky130_fd_sc_hd__buf_1
*CAP
1 mode[0] 0.000551322
2 *224:A 0.000551322
3 *224:A *225:A 0
*RES
1 mode[0] *224:A 49.7036 
*END

*D_NET *34 0.000884694
*CONN
*P mode[1] I
*I *225:A I *D sky130_fd_sc_hd__buf_1
*CAP
1 mode[1] 0.000432606
2 *225:A 0.000432606
3 *225:A *226:A 0
4 *225:A *50:8 1.94812e-05
5 *224:A *225:A 0
*RES
1 mode[1] *225:A 47.3214 
*END

*D_NET *35 0.000923877
*CONN
*P select[0] I
*I *226:A I *D sky130_fd_sc_hd__clkbuf_1
*CAP
1 select[0] 0.000427639
2 *226:A 0.000427639
3 *226:A *227:A 0
4 *226:A *50:8 1.94812e-05
5 *226:A *51:8 2.93845e-05
6 *226:A *51:10 1.97329e-05
7 *225:A *226:A 0
*RES
1 select[0] *226:A 47.3214 
*END

*D_NET *36 0.000962057
*CONN
*P select[1] I
*I *227:A I *D sky130_fd_sc_hd__clkbuf_1
*CAP
1 select[1] 0.00046246
2 *227:A 0.00046246
3 *227:A *228:A 0
4 *227:A *51:10 0
5 *227:A *52:10 3.71369e-05
6 *226:A *227:A 0
*RES
1 select[1] *227:A 47.7979 
*END

*D_NET *37 0.000932091
*CONN
*P select[2] I
*I *228:A I *D sky130_fd_sc_hd__clkbuf_1
*CAP
1 select[2] 0.00043854
2 *228:A 0.00043854
3 *228:A *229:A 0
4 *228:A *53:12 5.50106e-05
5 *227:A *228:A 0
*RES
1 select[2] *228:A 47.3214 
*END

*D_NET *38 0.000945028
*CONN
*P select[3] I
*I *229:A I *D sky130_fd_sc_hd__clkbuf_1
*CAP
1 select[3] 0.000445009
2 *229:A 0.000445009
3 *229:A *230:A 0
4 *229:A *53:12 5.50106e-05
5 *228:A *229:A 0
*RES
1 select[3] *229:A 47.3214 
*END

*D_NET *39 0.000972794
*CONN
*P select[4] I
*I *230:A I *D sky130_fd_sc_hd__clkbuf_1
*CAP
1 select[4] 0.000431386
2 *230:A 0.000431386
3 *230:A *232:A 0
4 *230:A *53:12 5.50106e-05
5 *230:A *55:12 5.50106e-05
6 *229:A *230:A 0
*RES
1 select[4] *230:A 47.3214 
*END

*D_NET *40 0.000957807
*CONN
*P select[5] I
*I *232:A I *D sky130_fd_sc_hd__clkbuf_1
*CAP
1 select[5] 0.000435323
2 *232:A 0.000435323
3 *232:A *46:10 5.50106e-05
4 *232:A *53:20 2.76611e-06
5 *232:A *55:12 2.93845e-05
6 *232:A *55:20 0
7 *230:A *232:A 0
8 *231:A *232:A 0
*RES
1 select[5] *232:A 47.3214 
*END

*D_NET *41 0.00171204
*CONN
*I *217:A2 I *D sky130_fd_sc_hd__a21oi_1
*I *195:Y O *D sky130_fd_sc_hd__inv_2
*CAP
1 *217:A2 6.42797e-05
2 *195:Y 0.000500702
3 *41:10 0.000564982
4 *217:A2 *211:A_N 3.70163e-05
5 *217:A2 *57:39 0
6 *217:A2 *79:28 6.11035e-05
7 *41:10 *42:10 0.000357855
8 *41:10 *50:14 1.76557e-05
9 *41:10 *78:27 6.57815e-06
10 *41:10 *80:14 4.48671e-05
11 *41:10 *80:47 5.70006e-05
*RES
1 *195:Y *41:10 46.2443 
2 *41:10 *217:A2 39.9264 
*END

*D_NET *42 0.00615999
*CONN
*I *216:A2 I *D sky130_fd_sc_hd__a21o_1
*I *214:A2 I *D sky130_fd_sc_hd__a21o_1
*I *212:A2 I *D sky130_fd_sc_hd__a21o_1
*I *215:A2 I *D sky130_fd_sc_hd__a21o_1
*I *213:A2 I *D sky130_fd_sc_hd__a21o_1
*I *196:Y O *D sky130_fd_sc_hd__nor2_1
*CAP
1 *216:A2 0
2 *214:A2 0
3 *212:A2 0.000150535
4 *215:A2 2.32701e-05
5 *213:A2 2.32701e-05
6 *196:Y 0.000365829
7 *42:68 0.000499859
8 *42:42 0.000439241
9 *42:34 0.000866802
10 *42:21 0.00024939
11 *42:10 0.000536982
12 *212:A2 *215:A1 5.3304e-05
13 *212:A2 *45:35 6.74169e-05
14 *212:A2 *49:6 5.67058e-05
15 *212:A2 *83:8 0.000188882
16 *213:A2 *48:8 5.3304e-05
17 *213:A2 *82:12 5.3304e-05
18 *215:A2 *215:A1 5.3304e-05
19 *215:A2 *83:8 5.3304e-05
20 *42:10 *45:10 1.84226e-05
21 *42:10 *50:14 0.000182826
22 *42:10 *50:28 0
23 *42:10 *57:39 4.07112e-05
24 *42:10 *78:10 0
25 *42:10 *78:18 9.87624e-05
26 *42:10 *78:27 3.22051e-05
27 *42:10 *80:14 0
28 *42:10 *80:25 6.68793e-05
29 *42:21 *85:16 0
30 *42:42 *47:10 1.01436e-05
31 *42:42 *84:26 0.000351689
32 *42:42 *85:16 3.47781e-05
33 *42:68 *74:14 3.64246e-05
34 *42:68 *77:16 0.000265466
35 *42:68 *81:18 3.44001e-05
36 *42:68 *84:26 0.000181125
37 inc[0] *42:10 5.94125e-05
38 inc[0] *42:21 0.000238185
39 inc[0] *42:34 0.000133316
40 inc[3] *42:68 0.000135547
41 inc[4] *42:68 0
42 *14:19 *42:21 0
43 *14:19 *42:42 5.62433e-05
44 *15:21 *212:A2 4.00259e-06
45 *15:21 *42:21 2.96154e-05
46 *15:21 *42:34 5.72749e-05
47 *41:10 *42:10 0.000357855
*RES
1 *196:Y *42:10 47.86 
2 *42:10 *213:A2 38.6214 
3 *42:10 *42:21 3.31429 
4 *42:21 *215:A2 38.6214 
5 *42:21 *42:34 16.9057 
6 *42:34 *42:42 34.9093 
7 *42:42 *212:A2 27.1429 
8 *42:42 *214:A2 23 
9 *42:34 *42:68 37.7679 
10 *42:68 *216:A2 23 
*END

*D_NET *43 0.00350832
*CONN
*I *199:B I *D sky130_fd_sc_hd__or2_1
*I *201:B I *D sky130_fd_sc_hd__or2_1
*I *202:B I *D sky130_fd_sc_hd__or2_1
*I *203:B I *D sky130_fd_sc_hd__or2_1
*I *200:B I *D sky130_fd_sc_hd__or2_1
*I *198:B I *D sky130_fd_sc_hd__or2_1
*I *197:Y O *D sky130_fd_sc_hd__xnor2_1
*CAP
1 *199:B 0
2 *201:B 2.72271e-05
3 *202:B 0
4 *203:B 0.00025101
5 *200:B 0.000155167
6 *198:B 0
7 *197:Y 0.000172478
8 *43:47 0.000395785
9 *43:17 0.000406177
10 *43:15 0.000507043
11 *43:8 0.000310963
12 *200:B *53:20 0.000139657
13 *200:B *58:10 0
14 *201:B *55:20 5.50106e-05
15 *203:B *251:A 7.44354e-05
16 *203:B *46:16 1.52362e-05
17 *203:B *53:20 2.46345e-05
18 *203:B *58:10 0
19 *203:B *65:8 0.000138708
20 *203:B *65:16 0.000310653
21 *203:B *70:10 6.33511e-05
22 *43:8 *198:A 0.00012377
23 *43:15 *198:A 9.84794e-05
24 *43:15 *53:20 5.3304e-05
25 *43:47 *53:20 4.79641e-05
26 *43:47 *55:20 2.02872e-05
27 *43:47 *66:10 4.09176e-05
28 *43:47 *70:10 8.7283e-06
29 *25:12 *203:B 6.73366e-05
*RES
1 *197:Y *43:8 26.0243 
2 *43:8 *198:B 23 
3 *43:8 *43:15 2.52714 
4 *43:15 *43:17 15 
5 *43:17 *200:B 40.5271 
6 *43:17 *203:B 45.2914 
7 *43:15 *43:47 5.42714 
8 *43:47 *202:B 23 
9 *43:47 *201:B 23.6214 
10 *43:15 *199:B 23 
*END

*D_NET *44 0.00238187
*CONN
*I *206:B1 I *D sky130_fd_sc_hd__a31o_1
*I *205:B1 I *D sky130_fd_sc_hd__a31o_1
*I *209:B1 I *D sky130_fd_sc_hd__a31o_1
*I *208:B1 I *D sky130_fd_sc_hd__a31o_1
*I *207:B1 I *D sky130_fd_sc_hd__a31o_1
*I *204:X O *D sky130_fd_sc_hd__and3b_1
*CAP
1 *206:B1 0
2 *205:B1 3.79925e-05
3 *209:B1 1.8352e-05
4 *208:B1 0
5 *207:B1 0
6 *204:X 0
7 *44:43 0.000126354
8 *44:25 0.000131353
9 *44:19 0.000245874
10 *44:8 0.000208856
11 *44:4 0.000201048
12 *205:B1 *78:75 0.000139352
13 *205:B1 *82:22 0.000139352
14 *209:B1 *209:A1 4.17736e-05
15 *209:B1 *62:8 5.3304e-05
16 *44:8 *78:35 1.24376e-05
17 *44:8 *78:46 9.41704e-05
18 *44:19 *209:A1 0.000164865
19 *44:19 *245:A 0.000158273
20 *44:19 *62:8 5.50049e-05
21 *44:19 *78:46 4.2573e-05
22 *44:25 *80:104 0.000237265
23 *44:25 *81:24 7.17379e-05
24 *44:43 *46:30 1.01436e-05
25 *44:43 *79:36 0.000135547
26 dec[0] *44:43 5.62433e-05
*RES
1 *204:X *44:4 23 
2 *44:4 *44:8 1.94714 
3 *44:8 *207:B1 23 
4 *44:8 *44:19 3.64571 
5 *44:19 *44:25 33.3143 
6 *44:25 *208:B1 23 
7 *44:19 *209:B1 23.6214 
8 *44:4 *44:43 31.9057 
9 *44:43 *205:B1 24.5743 
10 *44:43 *206:B1 23 
*END

*D_NET *45 0.00350465
*CONN
*I *216:B1 I *D sky130_fd_sc_hd__a21o_1
*I *215:B1 I *D sky130_fd_sc_hd__a21o_1
*I *214:B1 I *D sky130_fd_sc_hd__a21o_1
*I *212:B1 I *D sky130_fd_sc_hd__a21o_1
*I *213:B1 I *D sky130_fd_sc_hd__a21o_1
*I *211:X O *D sky130_fd_sc_hd__and3b_1
*CAP
1 *216:B1 6.04035e-05
2 *215:B1 0
3 *214:B1 0
4 *212:B1 0
5 *213:B1 2.98179e-05
6 *211:X 0.000119773
7 *45:53 8.31874e-05
8 *45:46 2.55832e-05
9 *45:35 0.000249413
10 *45:27 0.000529343
11 *45:23 0.000415338
12 *45:10 0.000287799
13 *213:B1 *82:12 5.56356e-05
14 *216:B1 *216:A1 4.34464e-05
15 *216:B1 *74:14 0.000144501
16 *216:B1 *83:8 0.000215035
17 *45:10 *57:39 1.14452e-05
18 *45:10 *79:28 5.73309e-05
19 *45:27 *215:A1 0.000208652
20 *45:27 *83:8 1.03836e-05
21 *45:35 *215:A1 0.000178517
22 *45:35 *84:26 6.16439e-05
23 *45:53 *216:A1 7.51453e-06
24 *45:53 *83:8 5.56356e-05
25 inc[0] *45:10 2.71291e-05
26 inc[0] *45:23 0.000108263
27 inc[1] *45:23 3.3746e-05
28 *212:A2 *45:35 6.74169e-05
29 *12:13 *45:35 6.38845e-05
30 *14:19 *45:46 6.16439e-05
31 *15:21 *45:46 6.16439e-05
32 *28:16 *45:10 6.79006e-05
33 *28:16 *45:23 0.000144203
34 *42:10 *45:10 1.84226e-05
*RES
1 *211:X *45:10 40.5271 
2 *45:10 *213:B1 38.6214 
3 *45:10 *45:23 18.3143 
4 *45:23 *45:27 3.85286 
5 *45:27 *45:35 33.8529 
6 *45:35 *212:B1 23 
7 *45:27 *45:46 30.8493 
8 *45:46 *214:B1 23 
9 *45:23 *45:53 0.621429 
10 *45:53 *215:B1 23 
11 *45:53 *216:B1 25.5271 
*END

*D_NET *46 0.0054102
*CONN
*I *210:A2 I *D sky130_fd_sc_hd__o21a_1
*I *204:B I *D sky130_fd_sc_hd__and3b_1
*I *220:X O *D sky130_fd_sc_hd__buf_1
*CAP
1 *210:A2 0
2 *204:B 0
3 *220:X 0.000193325
4 *46:30 0.000372281
5 *46:16 0.0014248
6 *46:10 0.00124585
7 *46:10 *53:12 9.84794e-05
8 *46:10 *55:12 0.000130414
9 *46:10 *56:8 0.000443679
10 *46:16 *50:28 2.30292e-05
11 *46:16 *53:20 0.000638609
12 *46:16 *65:8 6.68587e-05
13 *46:16 *80:51 0
14 *46:30 *50:28 2.79662e-05
15 *46:30 *51:22 4.70119e-05
16 *46:30 *59:8 0.000110913
17 *46:30 *78:31 0
18 *46:30 *78:35 1.94812e-05
19 *46:30 *79:36 0.000349008
20 dec[0] *46:30 7.71928e-05
21 *203:B *46:16 1.52362e-05
22 *232:A *46:10 5.50106e-05
23 *3:11 *46:10 5.90675e-06
24 *26:8 *46:16 5.50049e-05
25 *44:43 *46:30 1.01436e-05
*RES
1 *220:X *46:10 44.8357 
2 *46:10 *46:16 38.5936 
3 *46:16 *46:30 37.3329 
4 *46:30 *204:B 23 
5 *46:16 *210:A2 23 
*END

*D_NET *47 0.00161387
*CONN
*I *214:A1 I *D sky130_fd_sc_hd__a21o_1
*I *221:X O *D sky130_fd_sc_hd__clkbuf_1
*CAP
1 *214:A1 0
2 *221:X 0.000533403
3 *47:10 0.000533403
4 *47:10 *48:8 1.32939e-05
5 *47:10 *82:12 0.000181919
6 *47:10 *85:16 6.74919e-05
7 *12:13 *47:10 0.000103637
8 *14:19 *47:10 0.000170575
9 *42:42 *47:10 1.01436e-05
*RES
1 *221:X *47:10 46.5964 
2 *47:10 *214:A1 38 
*END

*D_NET *48 0.00148888
*CONN
*I *213:A1 I *D sky130_fd_sc_hd__a21o_1
*I *222:X O *D sky130_fd_sc_hd__clkbuf_1
*CAP
1 *213:A1 0
2 *222:X 0.000395289
3 *48:8 0.000395289
4 *48:8 *252:A 9.84851e-05
5 *48:8 *78:10 5.3304e-05
6 *48:8 *82:12 0.000113139
7 *213:A2 *48:8 5.3304e-05
8 *12:13 *48:8 7.42621e-05
9 *14:19 *48:8 0.000153167
10 *27:8 *48:8 0.000139346
11 *47:10 *48:8 1.32939e-05
*RES
1 *222:X *48:8 31.7414 
2 *48:8 *213:A1 23 
*END

*D_NET *49 0.00117618
*CONN
*I *212:A1 I *D sky130_fd_sc_hd__a21o_1
*I *223:X O *D sky130_fd_sc_hd__clkbuf_1
*CAP
1 *212:A1 0
2 *223:X 0.000390191
3 *49:6 0.000390191
4 *49:6 *83:8 1.76557e-05
5 *212:A2 *49:6 5.67058e-05
6 *11:13 *49:6 0.000300203
7 *15:21 *49:6 3.58084e-06
8 *20:13 *49:6 1.76557e-05
*RES
1 *223:X *49:6 28.3857 
2 *49:6 *212:A1 23 
*END

*D_NET *50 0.00708627
*CONN
*I *219:A I *D sky130_fd_sc_hd__buf_2
*I *210:A1 I *D sky130_fd_sc_hd__o21a_1
*I *224:X O *D sky130_fd_sc_hd__buf_1
*CAP
1 *219:A 0
2 *210:A1 0
3 *224:X 0.000494084
4 *50:28 0.00060046
5 *50:14 0.00142476
6 *50:8 0.00131838
7 *50:8 *51:8 4.04081e-05
8 *50:14 *51:10 0.0012199
9 *50:14 *78:18 0.000398221
10 *50:28 *254:A 0.000100805
11 *50:28 *256:A 0.00017681
12 *50:28 *51:22 9.41704e-05
13 *50:28 *57:39 0.000585652
14 *50:28 *79:28 0.000166322
15 *50:28 *79:36 4.20975e-05
16 *50:28 *80:25 7.8128e-05
17 *225:A *50:8 1.94812e-05
18 *226:A *50:8 1.94812e-05
19 *31:8 *50:28 5.56279e-05
20 *41:10 *50:14 1.76557e-05
21 *42:10 *50:14 0.000182826
22 *42:10 *50:28 0
23 *46:16 *50:28 2.30292e-05
24 *46:30 *50:28 2.79662e-05
*RES
1 *224:X *50:8 44.815 
2 *50:8 *50:14 37.33 
3 *50:14 *50:28 45.08 
4 *50:28 *210:A1 23 
5 *50:14 *219:A 23 
*END

*D_NET *51 0.00736831
*CONN
*I *218:A I *D sky130_fd_sc_hd__buf_2
*I *210:B1 I *D sky130_fd_sc_hd__o21a_1
*I *225:X O *D sky130_fd_sc_hd__buf_1
*CAP
1 *218:A 8.29385e-05
2 *210:B1 0
3 *225:X 0.000356055
4 *51:22 0.00147315
5 *51:10 0.00232433
6 *51:8 0.0011243
7 *218:A *72:8 1.39848e-05
8 *218:A *84:12 0.000163294
9 *218:A *85:16 0.000138727
10 *51:8 *52:10 8.91468e-07
11 *51:10 *72:8 3.84366e-05
12 *51:10 *78:18 7.13673e-05
13 *51:10 *80:14 0
14 *51:10 *84:12 7.80612e-05
15 *51:22 *78:31 5.58152e-06
16 *51:22 *79:36 1.76557e-05
17 inc[2] *51:22 2.89247e-05
18 *226:A *51:8 2.93845e-05
19 *226:A *51:10 1.97329e-05
20 *227:A *51:10 0
21 *46:30 *51:22 4.70119e-05
22 *50:8 *51:8 4.04081e-05
23 *50:14 *51:10 0.0012199
24 *50:28 *51:22 9.41704e-05
*RES
1 *225:X *51:8 42.9093 
2 *51:8 *51:10 21.0975 
3 *51:10 *51:22 34.9651 
4 *51:22 *210:B1 23 
5 *51:10 *218:A 40.4339 
*END

*D_NET *52 0.00520605
*CONN
*I *198:A I *D sky130_fd_sc_hd__or2_1
*I *226:X O *D sky130_fd_sc_hd__clkbuf_1
*CAP
1 *198:A 0.000192208
2 *226:X 0.000724674
3 *52:20 0.0011312
4 *52:10 0.00166366
5 *198:A *80:47 1.32314e-05
6 *52:10 *53:12 0.000607902
7 *52:10 *54:6 0.000364741
8 *52:20 *197:A 0.00014196
9 *52:20 *57:16 8.43374e-05
10 *52:20 *78:31 4.6318e-06
11 *52:20 *80:47 1.72202e-05
12 *227:A *52:10 3.71369e-05
13 *43:8 *198:A 0.00012377
14 *43:15 *198:A 9.84794e-05
15 *51:8 *52:10 8.91468e-07
*RES
1 *226:X *52:10 37.1271 
2 *52:10 *52:20 48.5393 
3 *52:20 *198:A 27.9093 
*END

*D_NET *53 0.00510628
*CONN
*I *199:A I *D sky130_fd_sc_hd__or2_1
*I *227:X O *D sky130_fd_sc_hd__clkbuf_1
*CAP
1 *199:A 0
2 *227:X 0.000483184
3 *53:20 0.000570497
4 *53:12 0.00105368
5 *53:12 *54:6 0.000289515
6 *53:12 *55:12 0.000325946
7 *53:12 *56:8 7.39261e-05
8 *53:20 *54:12 0.000525806
9 *53:20 *58:10 0
10 *53:20 *70:10 5.37348e-06
11 *200:B *53:20 0.000139657
12 *203:B *53:20 2.46345e-05
13 *228:A *53:12 5.50106e-05
14 *229:A *53:12 5.50106e-05
15 *230:A *53:12 5.50106e-05
16 *232:A *53:20 2.76611e-06
17 *43:15 *53:20 5.3304e-05
18 *43:47 *53:20 4.79641e-05
19 *46:10 *53:12 9.84794e-05
20 *46:16 *53:20 0.000638609
21 *52:10 *53:12 0.000607902
*RES
1 *227:X *53:12 40.0064 
2 *53:12 *53:20 48.6221 
3 *53:20 *199:A 23 
*END

*D_NET *54 0.00403904
*CONN
*I *200:A I *D sky130_fd_sc_hd__or2_1
*I *228:X O *D sky130_fd_sc_hd__clkbuf_1
*CAP
1 *200:A 0
2 *228:X 0.000765461
3 *54:12 0.000529592
4 *54:6 0.00129505
5 *54:6 *56:8 0.000268873
6 *54:12 *58:10 0
7 *52:10 *54:6 0.000364741
8 *53:12 *54:6 0.000289515
9 *53:20 *54:12 0.000525806
*RES
1 *228:X *54:6 35.5321 
2 *54:6 *54:12 43.5264 
3 *54:12 *200:A 23 
*END

*D_NET *55 0.00487364
*CONN
*I *201:A I *D sky130_fd_sc_hd__or2_1
*I *229:X O *D sky130_fd_sc_hd__clkbuf_1
*CAP
1 *201:A 0
2 *229:X 0.000652894
3 *55:20 0.000758992
4 *55:12 0.00141189