*SPEF "ieee 1481-1999"
*DESIGN "alarm"
*DATE "19:22:29 Friday January 16, 2026"
*VENDOR "The OpenROAD Project"
*PROGRAM "OpenROAD"
*VERSION "edf00dff99f6c40d67a30c0e22a8191c5d2ed9d6"
*DESIGN_FLOW "NAME_SCOPE LOCAL" "PIN_CAP NONE"
*DIVIDER /
*DELIMITER :
*BUS_DELIMITER []
*T_UNIT 1 NS
*C_UNIT 1 PF
*R_UNIT 1 OHM
*L_UNIT 1 HENRY

*NAME_MAP
*3 alarm_hour[0]
*4 alarm_hour[1]
*5 alarm_hour[2]
*6 alarm_hour[3]
*7 alarm_hour[4]
*8 alarm_i
*9 alarm_min[0]
*10 alarm_min[1]
*11 alarm_min[2]
*12 alarm_min[3]
*13 alarm_min[4]
*14 alarm_min[5]
*15 alarm_o
*16 clk
*17 hour[0]
*18 hour[1]
*19 hour[2]
*20 hour[3]
*21 hour[4]
*22 minute[0]
*23 minute[1]
*24 minute[2]
*25 minute[3]
*26 minute[4]
*27 minute[5]
*28 rst_n
*29 _00_
*30 _01_
*31 _02_
*32 _03_
*33 _04_
*34 _05_
*35 _06_
*36 _07_
*37 _08_
*38 _09_
*39 _10_
*40 _11_
*41 _12_
*42 _13_
*43 _14_
*44 _15_
*45 _16_
*46 _17_
*47 _18_
*48 clknet_0_clk
*49 clknet_1_0__leaf_clk
*50 clknet_1_1__leaf_clk
*51 net1
*52 net10
*53 net11
*54 net12
*55 net13
*56 net14
*57 net15
*58 net16
*59 net17
*60 net18
*61 net19
*62 net2
*63 net20
*64 net21
*65 net22
*66 net23
*67 net24
*68 net25
*69 net26
*70 net27
*71 net3
*72 net4
*73 net5
*74 net6
*75 net7
*76 net8
*77 net9
*78 state_alarm
*79 FILLER_0_3
*80 FILLER_0_49
*81 FILLER_0_55
*82 FILLER_0_80
*83 FILLER_1_17
*84 FILLER_1_25
*85 FILLER_1_46
*86 FILLER_1_54
*87 FILLER_1_57
*88 FILLER_1_69
*89 FILLER_2_10
*90 FILLER_2_14
*91 FILLER_2_26
*92 FILLER_2_37
*93 FILLER_2_45
*94 FILLER_2_67
*95 FILLER_2_79
*96 FILLER_3_19
*97 FILLER_3_31
*98 FILLER_3_43
*99 FILLER_3_55
*100 FILLER_3_57
*101 FILLER_3_69
*102 FILLER_3_77
*103 FILLER_3_9
*104 FILLER_4_27
*105 FILLER_4_29
*106 FILLER_4_57
*107 FILLER_4_69
*108 FILLER_4_77
*109 FILLER_5_15
*110 FILLER_5_25
*111 FILLER_5_37
*112 FILLER_5_49
*113 FILLER_5_55
*114 FILLER_5_57
*115 FILLER_5_6
*116 FILLER_5_69
*117 FILLER_5_77
*118 FILLER_6_19
*119 FILLER_6_27
*120 FILLER_6_29
*121 FILLER_6_41
*122 FILLER_6_53
*123 FILLER_6_65
*124 FILLER_6_77
*125 FILLER_6_9
*126 FILLER_7_10
*127 FILLER_7_22
*128 FILLER_7_34
*129 FILLER_7_46
*130 FILLER_7_54
*131 FILLER_7_57
*132 FILLER_7_69
*133 FILLER_8_12
*134 FILLER_8_20
*135 FILLER_8_29
*136 FILLER_8_41
*137 FILLER_8_53
*138 FILLER_8_65
*139 FILLER_8_73
*140 FILLER_9_20
*141 FILLER_9_29
*142 FILLER_9_41
*143 FILLER_9_53
*144 FILLER_9_57
*145 FILLER_9_69
*146 PHY_EDGE_ROW_0_Left_10
*147 PHY_EDGE_ROW_0_Right_0
*148 PHY_EDGE_ROW_1_Left_11
*149 PHY_EDGE_ROW_1_Right_1
*150 PHY_EDGE_ROW_2_Left_12
*151 PHY_EDGE_ROW_2_Right_2
*152 PHY_EDGE_ROW_3_Left_13
*153 PHY_EDGE_ROW_3_Right_3
*154 PHY_EDGE_ROW_4_Left_14
*155 PHY_EDGE_ROW_4_Right_4
*156 PHY_EDGE_ROW_5_Left_15
*157 PHY_EDGE_ROW_5_Right_5
*158 PHY_EDGE_ROW_6_Left_16
*159 PHY_EDGE_ROW_6_Right_6
*160 PHY_EDGE_ROW_7_Left_17
*161 PHY_EDGE_ROW_7_Right_7
*162 PHY_EDGE_ROW_8_Left_18
*163 PHY_EDGE_ROW_8_Right_8
*164 PHY_EDGE_ROW_9_Left_19
*165 PHY_EDGE_ROW_9_Right_9
*166 TAP_TAPCELL_ROW_0_20
*167 TAP_TAPCELL_ROW_0_21
*168 TAP_TAPCELL_ROW_1_22
*169 TAP_TAPCELL_ROW_2_23
*170 TAP_TAPCELL_ROW_3_24
*171 TAP_TAPCELL_ROW_4_25
*172 TAP_TAPCELL_ROW_5_26
*173 TAP_TAPCELL_ROW_6_27
*174 TAP_TAPCELL_ROW_7_28
*175 TAP_TAPCELL_ROW_8_29
*176 TAP_TAPCELL_ROW_9_30
*177 TAP_TAPCELL_ROW_9_31
*178 _19_
*179 _20_
*180 _21_
*181 _22_
*182 _23_
*183 _24_
*184 _25_
*185 _26_
*186 _27_
*187 _28_
*188 _29_
*189 _30_
*190 _31_
*191 _32_
*192 _33_
*193 _34_
*194 _35_
*195 _36_
*196 _37_
*197 _38_
*198 _39_
*199 clkbuf_0_clk
*200 clkbuf_1_0__f_clk
*201 clkbuf_1_1__f_clk
*202 hold1
*203 hold2
*204 input1
*205 input10
*206 input11
*207 input12
*208 input13
*209 input14
*210 input15
*211 input16
*212 input17
*213 input18
*214 input19
*215 input2
*216 input20
*217 input21
*218 input22
*219 input23
*220 input24
*221 input3
*222 input4
*223 input5
*224 input6
*225 input7
*226 input8
*227 input9
*228 output25

*PORTS
alarm_hour[0] I
alarm_hour[1] I
alarm_hour[2] I
alarm_hour[3] I
alarm_hour[4] I
alarm_i I
alarm_min[0] I
alarm_min[1] I
alarm_min[2] I
alarm_min[3] I
alarm_min[4] I
alarm_min[5] I
alarm_o O
clk I
hour[0] I
hour[1] I
hour[2] I
hour[3] I
hour[4] I
minute[0] I
minute[1] I
minute[2] I
minute[3] I
minute[4] I
minute[5] I
rst_n I

*D_NET *3 0.000913433
*CONN
*P alarm_hour[0] I
*I *204:A I *D sky130_fd_sc_hd__clkbuf_1
*CAP
1 alarm_hour[0] 0.000315849
2 *204:A 0
3 *3:15 0.000315849
4 *3:15 *4:13 0.000252386
5 *3:15 *14:13 1.50234e-05
6 *3:15 *62:10 1.43261e-05
*RES
1 alarm_hour[0] *3:15 28.1032 
2 *3:15 *204:A 23 
*END

*D_NET *4 0.000946155
*CONN
*P alarm_hour[1] I
*I *215:A I *D sky130_fd_sc_hd__clkbuf_1
*CAP
1 alarm_hour[1] 0.000339373
2 *215:A 0
3 *4:13 0.000339373
4 *4:13 *5:15 1.50234e-05
5 *4:13 *14:13 0
6 *3:15 *4:13 0.000252386
*RES
1 alarm_hour[1] *4:13 29.7366 
2 *4:13 *215:A 23 
*END

*D_NET *5 0.00138891
*CONN
*P alarm_hour[2] I
*I *221:A I *D sky130_fd_sc_hd__clkbuf_1
*CAP
1 alarm_hour[2] 0.000403293
2 *221:A 0
3 *5:15 0.000403293
4 *5:15 *6:13 2.58126e-05
5 *5:15 *7:13 0.000293637
6 *5:15 *8:15 0.000156614
7 *5:15 *73:10 3.29501e-05
8 *5:15 *74:12 5.82853e-05
9 *4:13 *5:15 1.50234e-05
*RES
1 alarm_hour[2] *5:15 30.5505 
2 *5:15 *221:A 23 
*END

*D_NET *6 0.000793144
*CONN
*P alarm_hour[3] I
*I *222:A I *D sky130_fd_sc_hd__clkbuf_1
*CAP
1 alarm_hour[3] 0.000306117
2 *222:A 0
3 *6:13 0.000306117
4 *6:13 *7:13 0.000155098
5 *5:15 *6:13 2.58126e-05
*RES
1 alarm_hour[3] *6:13 27.9759 
2 *6:13 *222:A 23 
*END

*D_NET *7 0.00175847
*CONN
*P alarm_hour[4] I
*I *223:A I *D sky130_fd_sc_hd__clkbuf_1
*CAP
1 alarm_hour[4] 0.000431656
2 *223:A 0
3 *7:13 0.000431656
4 *7:13 *8:15 0.000446423
5 *5:15 *7:13 0.000293637
6 *6:13 *7:13 0.000155098
*RES
1 alarm_hour[4] *7:13 34.276 
2 *7:13 *223:A 23 
*END

*D_NET *8 0.00205151
*CONN
*P alarm_i I
*I *224:A I *D sky130_fd_sc_hd__buf_1
*CAP
1 alarm_i 0.000708094
2 *224:A 0
3 *8:15 0.000708094
4 *8:15 *191:B 0
5 *8:15 *73:10 3.22879e-05
6 *5:15 *8:15 0.000156614
7 *7:13 *8:15 0.000446423
*RES
1 alarm_i *8:15 38.5906 
2 *8:15 *224:A 23 
*END

*D_NET *9 0.00168972
*CONN
*P alarm_min[0] I
*I *225:A I *D sky130_fd_sc_hd__clkbuf_1
*CAP
1 alarm_min[0] 0.000656405
2 *225:A 0
3 *9:15 0.000656405
4 *9:15 alarm_o 1.78437e-05
5 *9:15 *10:11 5.94747e-05
6 *9:15 *60:20 0.00029959
*RES
1 alarm_min[0] *9:15 34.1401 
2 *9:15 *225:A 23 
*END

*D_NET *10 0.0023796
*CONN
*P alarm_min[1] I
*I *226:A I *D sky130_fd_sc_hd__clkbuf_1
*CAP
1 alarm_min[1] 0.00100174
2 *226:A 0
3 *10:11 0.00100174
4 *10:11 *196:B1 0
5 *10:11 *11:15 6.16025e-05
6 *10:11 *37:10 5.83189e-05
7 *10:11 *76:10 5.26101e-05
8 *10:11 *77:8 0.00014411
9 *9:15 *10:11 5.94747e-05
*RES
1 alarm_min[1] *10:11 31.2762 
2 *10:11 *226:A 23 
*END

*D_NET *11 0.00152162
*CONN
*P alarm_min[2] I
*I *227:A I *D sky130_fd_sc_hd__clkbuf_1
*CAP
1 alarm_min[2] 0.000604928
2 *227:A 0
3 *11:15 0.000604928
4 *11:15 *192:A 6.87243e-05
5 *11:15 *12:15 3.49463e-05
6 *11:15 *15:8 3.06338e-05
7 *11:15 *44:8 7.59794e-05
8 *11:15 *68:25 3.98818e-05
9 *11:15 *76:10 0
10 *10:11 *11:15 6.16025e-05
*RES
1 alarm_min[2] *11:15 32.0095 
2 *11:15 *227:A 23 
*END

*D_NET *12 0.00106719
*CONN
*P alarm_min[3] I
*I *205:A I *D sky130_fd_sc_hd__clkbuf_1
*CAP
1 alarm_min[3] 0.000330973
2 *205:A 0
3 *12:15 0.000330973
4 *12:15 *181:B 5.90675e-06
5 *12:15 *13:13 0.000254721
6 *12:15 *52:12 5.29672e-05
7 *12:15 *53:10 5.67058e-05
8 *11:15 *12:15 3.49463e-05
*RES
1 alarm_min[3] *12:15 30.216 
2 *12:15 *205:A 23 
*END

*D_NET *13 0.000725548
*CONN
*P alarm_min[4] I
*I *206:A I *D sky130_fd_sc_hd__clkbuf_1
*CAP
1 alarm_min[4] 0.000219929
2 *206:A 0
3 *13:13 0.000219929
4 *13:13 *14:13 2.34344e-05
5 *13:13 *52:12 7.53384e-06
6 *12:15 *13:13 0.000254721
*RES
1 alarm_min[4] *13:13 27.2716 
2 *13:13 *206:A 23 
*END

*D_NET *14 0.00061317
*CONN
*P alarm_min[5] I
*I *207:A I *D sky130_fd_sc_hd__clkbuf_1
*CAP
1 alarm_min[5] 0.000287356
2 *207:A 0
3 *14:13 0.000287356
4 *3:15 *14:13 1.50234e-05
5 *4:13 *14:13 0
6 *13:13 *14:13 2.34344e-05
*RES
1 alarm_min[5] *14:13 27.6237 
2 *14:13 *207:A 23 
*END

*D_NET *15 0.00155956
*CONN
*P alarm_o O
*I *228:X O *D sky130_fd_sc_hd__buf_2
*CAP
1 alarm_o 0.000533986
2 *228:X 0.000221557
3 *15:8 0.000755543
4 *9:15 alarm_o 1.78437e-05
5 *11:15 *15:8 3.06338e-05
*RES
1 *228:X *15:8 41.48 
2 *15:8 alarm_o 18.4237 
*END

*D_NET *16 0.00285139
*CONN
*P clk I
*I *199:A I *D sky130_fd_sc_hd__clkbuf_16
*CAP
1 clk 0.00108684
2 *199:A 0
3 *16:13 0.00108684
4 *16:13 *214:A 2.39911e-05
5 *16:13 *22:15 0
6 *16:13 *28:11 0.000414618
7 *16:13 *60:8 2.5415e-05
8 *16:13 *63:12 0.000213682
*RES
1 clk *16:13 43.1421 
2 *16:13 *199:A 23 
*END

*D_NET *17 0.000941634
*CONN
*P hour[0] I
*I *208:A I *D sky130_fd_sc_hd__buf_1
*CAP
1 hour[0] 0.000350234
2 *208:A 0.000350234
3 *208:A *209:A 5.92358e-05
4 *208:A *219:A 5.57272e-05
5 *208:A *56:8 0.000126203
*RES
1 hour[0] *208:A 49.4494 
*END

*D_NET *18 0.000581169
*CONN
*P hour[1] I
*I *209:A I *D sky130_fd_sc_hd__buf_1
*CAP
1 hour[1] 0.000201956
2 *209:A 0.000201956
3 *209:A *210:A 7.82427e-05
4 *209:A *57:8 3.9779e-05
5 *208:A *209:A 5.92358e-05
*RES
1 hour[1] *209:A 48.1354 
*END

*D_NET *19 0.000644558
*CONN
*P hour[2] I
*I *210:A I *D sky130_fd_sc_hd__buf_1
*CAP
1 hour[2] 0.000225761
2 *210:A 0.000225761
3 *210:A *20:11 0.000114793
4 *209:A *210:A 7.82427e-05
*RES
1 hour[2] *210:A 48.4875 
*END

*D_NET *20 0.00114575
*CONN
*P hour[3] I
*I *211:A I *D sky130_fd_sc_hd__buf_1
*CAP
1 hour[3] 0.00041124
2 *211:A 0
3 *20:11 0.00041124
4 *20:11 *21:11 0.000208474
5 *210:A *20:11 0.000114793
*RES
1 hour[3] *20:11 29.2665 
2 *20:11 *211:A 23 
*END

*D_NET *21 0.0015578
*CONN
*P hour[4] I
*I *212:A I *D sky130_fd_sc_hd__buf_1
*CAP
1 hour[4] 0.000674665
2 *212:A 0
3 *21:11 0.000674665
4 *20:11 *21:11 0.000208474
*RES
1 hour[4] *21:11 33.0456 
2 *21:11 *212:A 23 
*END

*D_NET *22 0.00115935
*CONN
*P minute[0] I
*I *213:A I *D sky130_fd_sc_hd__buf_1
*CAP
1 minute[0] 0.000498148
2 *213:A 0
3 *22:15 0.000498148
4 *22:15 *214:A 5.48353e-05
5 *22:15 *28:11 5.32136e-05
6 *22:15 *61:12 5.50049e-05
7 *16:13 *22:15 0
*RES
1 minute[0] *22:15 30.8435 
2 *22:15 *213:A 23 
*END

*D_NET *23 0.000577153
*CONN
*P minute[1] I
*I *214:A I *D sky130_fd_sc_hd__buf_1
*CAP
1 minute[1] 0.000211478
2 *214:A 0.000211478
3 *214:A *216:A 7.53701e-05
4 *214:A *28:11 0
5 *16:13 *214:A 2.39911e-05
6 *22:15 *214:A 5.48353e-05
*RES
1 minute[1] *214:A 47.4311 
*END

*D_NET *24 0.00074741
*CONN
*P minute[2] I
*I *216:A I *D sky130_fd_sc_hd__buf_1
*CAP
1 minute[2] 0.000267897
2 *216:A 0.000267897
3 *216:A *217:A 8.06147e-05
4 *216:A *63:8 5.56306e-05
5 *214:A *216:A 7.53701e-05
*RES
1 minute[2] *216:A 49.5439 
*END

*D_NET *25 0.00060784
*CONN
*P minute[3] I
*I *217:A I *D sky130_fd_sc_hd__clkbuf_1
*CAP
1 minute[3] 0.000223305
2 *217:A 0.000223305
3 *217:A *218:A 8.06147e-05
4 *216:A *217:A 8.06147e-05
*RES
1 minute[3] *217:A 48.4875 
*END

*D_NET *26 0.000571925
*CONN
*P minute[4] I
*I *218:A I *D sky130_fd_sc_hd__buf_1
*CAP
1 minute[4] 0.000218686
2 *218:A 0.000218686
3 *218:A *219:A 4.189e-05
4 *218:A *65:8 1.20476e-05
5 *217:A *218:A 8.06147e-05
*RES
1 minute[4] *218:A 48.1354 
*END

*D_NET *27 0.000493579
*CONN
*P minute[5] I
*I *219:A I *D sky130_fd_sc_hd__buf_1
*CAP
1 minute[5] 0.000197981
2 *219:A 0.000197981
3 *208:A *219:A 5.57272e-05
4 *218:A *219:A 4.189e-05
*RES
1 minute[5] *219:A 47.0789 
*END

*D_NET *28 0.00111177
*CONN
*P rst_n I
*I *220:A I *D sky130_fd_sc_hd__buf_1
*CAP
1 rst_n 0.000321969
2 *220:A 0
3 *28:11 0.000321969
4 *214:A *28:11 0
5 *16:13 *28:11 0.000414618
6 *22:15 *28:11 5.32136e-05
*RES
1 rst_n *28:11 28.3905 
2 *28:11 *220:A 23 
*END

*D_NET *29 0.00124518
*CONN
*I *197:D I *D sky130_fd_sc_hd__dfrtp_1
*I *178:X O *D sky130_fd_sc_hd__xor2_1
*CAP
1 *197:D 0
2 *178:X 0.0002701
3 *29:6 0.0002701
4 *29:6 *192:A 0.000315857
5 *29:6 *197:RESET_B 0.000124466
6 *29:6 *61:12 0.000264657
*RES
1 *178:X *29:6 31.7207 
2 *29:6 *197:D 23 
*END

*D_NET *30 0.00232377
*CONN
*I *198:D I *D sky130_fd_sc_hd__dfrtp_1
*I *196:X O *D sky130_fd_sc_hd__o21a_1
*CAP
1 *198:D 0
2 *196:X 0.000446102
3 *30:6 0.000446102
4 *30:6 *196:A1 5.67058e-05
5 *30:6 *196:B1 9.84794e-05
6 *30:6 *198:RESET_B 5.02669e-05
7 *30:6 *60:20 0.00114739
8 *30:6 *67:10 7.87243e-05
*RES
1 *196:X *30:6 37.9143 
2 *30:6 *198:D 23 
*END

*D_NET *31 0.00110063
*CONN
*I *184:C1 I *D sky130_fd_sc_hd__a221o_1
*I *179:X O *D sky130_fd_sc_hd__xor2_1
*CAP
1 *184:C1 0
2 *179:X 0.000480799
3 *31:10 0.000480799
4 *31:10 *35:10 8.16713e-05
5 *31:10 *56:12 1.84917e-05
6 *31:10 *62:10 3.88725e-05
*RES
1 *179:X *31:10 46.5136 
2 *31:10 *184:C1 38 
*END

*D_NET *32 0.000442853
*CONN
*I *184:A1 I *D sky130_fd_sc_hd__a221o_1
*I *180:X O *D sky130_fd_sc_hd__or2_1
*CAP
1 *184:A1 0.000179338
2 *180:X 0.000179338
3 *184:A1 *180:A 4.39278e-05
4 *184:A1 *184:B1 2.30292e-05
5 *184:A1 *184:B2 1.72202e-05
*RES
1 *180:X *184:A1 49.0243 
*END

*D_NET *33 0.000658587
*CONN
*I *184:A2 I *D sky130_fd_sc_hd__a221o_1
*I *181:Y O *D sky130_fd_sc_hd__nand2_1
*CAP
1 *184:A2 2.61861e-05
2 *181:Y 0.000122816
3 *33:10 0.000149002
4 *184:A2 *180:A 1.6318e-05
5 *33:10 *39:12 0.000139647
6 *33:10 *40:10 0.000141879
7 *33:10 *64:29 6.27395e-05
*RES
1 *181:Y *33:10 41.0036 
2 *33:10 *184:A2 38.3832 
*END

*D_NET *34 0.000632779
*CONN
*I *184:B1 I *D sky130_fd_sc_hd__a221o_1
*I *182:Y O *D sky130_fd_sc_hd__nand2_1
*CAP
1 *184:B1 3.71454e-05
2 *182:Y 0.000126716
3 *34:10 0.000163861
4 *184:B1 *180:A 5.50049e-05
5 *34:10 *183:A 2.64616e-05
6 *34:10 *35:10 6.46506e-05
7 *34:10 *40:10 0.000135911
8 *184:A1 *184:B1 2.30292e-05
*RES
1 *182:Y *34:10 40.5271 
2 *34:10 *184:B1 39.1186 
*END

*D_NET *35 0.000506191
*CONN
*I *184:B2 I *D sky130_fd_sc_hd__a221o_1
*I *183:X O *D sky130_fd_sc_hd__or2_1
*CAP
1 *184:B2 1.08802e-05
2 *183:X 0.000134633
3 *35:10 0.000145513
4 *184:B2 *180:A 1.43071e-05
5 *35:10 *183:A 2.95526e-05
6 *35:10 *40:10 7.76364e-06
7 *184:A1 *184:B2 1.72202e-05
8 *31:10 *35:10 8.16713e-05
9 *34:10 *35:10 6.46506e-05
*RES
1 *183:X *35:10 40.8793 
2 *35:10 *184:B2 38.3314 
*END

*D_NET *36 0.000771344
*CONN
*I *195:A I *D sky130_fd_sc_hd__nor3_1
*I *184:X O *D sky130_fd_sc_hd__a221o_1
*CAP
1 *195:A 0
2 *184:X 0.000342974
3 *36:8 0.000342974
4 *36:8 *180:A 2.38288e-05
5 *36:8 *64:6 8.67228e-06
6 *36:8 *65:14 5.2894e-05
*RES
1 *184:X *36:8 27.4536 
2 *36:8 *195:A 23 
*END

*D_NET *37 0.00175312
*CONN
*I *189:A I *D sky130_fd_sc_hd__or4_1
*I *185:X O *D sky130_fd_sc_hd__xor2_1
*CAP
1 *189:A 0
2 *185:X 0.000544665
3 *37:10 0.000544665
4 *37:10 *185:B 5.67058e-05
5 *37:10 *38:10 2.5415e-05
6 *37:10 *39:12 1.14452e-05
7 *37:10 *44:14 0.000229965
8 *37:10 *60:20 0.000196809
9 *37:10 *77:8 8.51329e-05
10 *10:11 *37:10 5.83189e-05
*RES
1 *185:X *37:10 48.8957 
2 *37:10 *189:A 38 
*END

*D_NET *38 0.000588301
*CONN
*I *189:B I *D sky130_fd_sc_hd__or4_1
*I *186:X O *D sky130_fd_sc_hd__xor2_1
*CAP
1 *189:B 0
2 *186:X 0.000187878
3 *38:10 0.000187878
4 *38:10 *63:12 0.000187129
5 *37:10 *38:10 2.5415e-05
*RES
1 *186:X *38:10 41.2521 
2 *38:10 *189:B 38 
*END

*D_NET *39 0.00272671
*CONN
*I *189:C I *D sky130_fd_sc_hd__or4_1
*I *187:X O *D sky130_fd_sc_hd__xor2_1
*CAP
1 *189:C 0
2 *187:X 8.56471e-05
3 *39:12 0.000628723
4 *39:8 0.000714371
5 *39:8 *187:A 5.47808e-05
6 *39:12 *40:10 0.000308259
7 *39:12 *43:8 0
8 *39:12 *44:14 4.98718e-06
9 *39:12 *45:8 0.000170807
10 *39:12 *55:10 0.00038009
11 *39:12 *64:29 0.000116103
12 *39:12 *73:10 0.000111852
13 *33:10 *39:12 0.000139647
14 *37:10 *39:12 1.14452e-05
*RES
1 *187:X *39:8 39.5743 
2 *39:8 *39:12 31.3436 
3 *39:12 *189:C 23 
*END

*D_NET *40 0.00243189
*CONN
*I *189:D I *D sky130_fd_sc_hd__or4_1
*I *188:X O *D sky130_fd_sc_hd__xor2_1
*CAP
1 *189:D 0
2 *188:X 0
3 *40:10 0.000730637
4 *40:6 0.000730637
5 *40:10 *52:12 0
6 *40:10 *55:10 0.000376806
7 *33:10 *40:10 0.000141879
8 *34:10 *40:10 0.000135911
9 *35:10 *40:10 7.76364e-06
10 *39:12 *40:10 0.000308259
*RES
1 *188:X *40:6 38 
2 *40:6 *40:10 30.6393 
3 *40:10 *189:D 23 
*END

*D_NET *41 0.00091745
*CONN
*I *195:B I *D sky130_fd_sc_hd__nor3_1
*I *189:X O *D sky130_fd_sc_hd__or4_1
*CAP
1 *195:B 0
2 *189:X 0.000405717
3 *41:10 0.000405717
4 *41:10 *46:10 1.14452e-05
5 *41:10 *47:10 8.4047e-05
6 *41:10 *53:10 1.05235e-05
7 *41:10 *74:16 0
*RES
1 *189:X *41:10 43.3857 
2 *41:10 *195:B 38 
*END

*D_NET *42 0.000741869
*CONN
*I *194:A I *D sky130_fd_sc_hd__or4_1
*I *190:X O *D sky130_fd_sc_hd__xor2_1
*CAP
1 *194:A 0
2 *190:X 0.000260679
3 *42:10 0.000260679
4 *42:10 *74:16 0.000220511
*RES
1 *190:X *42:10 43.0129 
2 *42:10 *194:A 38 
*END

*D_NET *43 0.00123036
*CONN
*I *194:B I *D sky130_fd_sc_hd__or4_1
*I *191:X O *D sky130_fd_sc_hd__xor2_1
*CAP
1 *194:B 0
2 *191:X 0.000422942
3 *43:8 0.000422942
4 *43:8 *44:14 6.437e-05
5 *43:8 *45:8 6.5117e-06
6 *43:8 *74:16 0.00031359
7 *39:12 *43:8 0
*RES
1 *191:X *43:8 47.6529 
2 *43:8 *194:B 38 
*END

*D_NET *44 0.00239593
*CONN
*I *194:C I *D sky130_fd_sc_hd__or4_1
*I *192:X O *D sky130_fd_sc_hd__xor2_1
*CAP
1 *194:C 0
2 *192:X 7.92026e-05
3 *44:14 0.000391277
4 *44:8 0.00047048
5 *44:8 *192:A 0.000226306
6 *44:14 *194:D 5.3304e-05
7 *44:14 *196:B1 1.83667e-05
8 *44:14 *45:8 6.33351e-05
9 *44:14 *53:10 0.000274543
10 *44:14 *64:29 0.000244437
11 *44:14 *66:14 2.33782e-05
12 *44:14 *69:10 6.67764e-05
13 *44:14 *74:16 0.000109224
14 *11:15 *44:8 7.59794e-05
15 *37:10 *44:14 0.000229965
16 *39:12 *44:14 4.98718e-06
17 *43:8 *44:14 6.437e-05
*RES
1 *192:X *44:8 40.5271 
2 *44:8 *44:14 27.5114 
3 *44:14 *194:C 23 
*END

*D_NET *45 0.000684351
*CONN
*I *194:D I *D sky130_fd_sc_hd__or4_1
*I *193:X O *D sky130_fd_sc_hd__xor2_1
*CAP
1 *194:D 5.93069e-05
2 *193:X 5.88604e-05
3 *45:8 0.000118167
4 *194:D *66:14 0.000142678
5 *45:8 *64:29 1.13812e-05
6 *39:12 *45:8 0.000170807
7 *43:8 *45:8 6.5117e-06
8 *44:14 *194:D 5.3304e-05
9 *44:14 *45:8 6.33351e-05
*RES
1 *193:X *45:8 40.2579 
2 *45:8 *194:D 39.5743 
*END

*D_NET *46 0.000472354
*CONN
*I *195:C I *D sky130_fd_sc_hd__nor3_1
*I *194:X O *D sky130_fd_sc_hd__or4_1
*CAP
1 *195:C 0
2 *194:X 0.000218748
3 *46:10 0.000218748
4 *46:10 *66:14 2.34132e-05
5 *46:10 *74:16 0
6 *41:10 *46:10 1.14452e-05
*RES
1 *194:X *46:10 41.3557 
2 *46:10 *195:C 38 
*END

*D_NET *47 0.0021167
*CONN
*I *196:A2 I *D sky130_fd_sc_hd__o21a_1
*I *195:Y O *D sky130_fd_sc_hd__nor3_1
*CAP
1 *196:A2 0.000188381
2 *195:Y 0.000525692
3 *47:10 0.000714073
4 *196:A2 *60:20 0.000269781
5 *47:10 *196:B1 0
6 *47:10 *203:A 4.6318e-06
7 *47:10 *65:14 3.16784e-05
8 *47:10 *68:25 3.3746e-05
9 *47:10 *74:16 0.000195324
10 *47:10 *78:8 6.93449e-05
11 *41:10 *47:10 8.4047e-05
*RES
1 *195:Y *47:10 48.7507 
2 *47:10 *196:A2 41.0036 
*END

*D_NET *48 0.00177002
*CONN
*I *201:A I *D sky130_fd_sc_hd__clkbuf_16
*I *200:A I *D sky130_fd_sc_hd__clkbuf_16
*I *199:X O *D sky130_fd_sc_hd__clkbuf_16
*CAP
1 *201:A 0.000369063
2 *200:A 0.00030015
3 *199:X 0.000167558
4 *48:8 0.000836771
5 *201:A *65:14 2.93747e-05
6 *48:8 *63:12 6.71074e-05
*RES
1 *199:X *48:8 40.5271 
2 *48:8 *200:A 43.075 
3 *48:8 *201:A 44.7529 
*END

*D_NET *49 0.00164533
*CONN
*I *198:CLK I *D sky130_fd_sc_hd__dfrtp_1
*I *200:X O *D sky130_fd_sc_hd__clkbuf_16
*CAP
1 *198:CLK 0
2 *200:X 0.000214309
3 *49:10 0.000214309
4 *49:10 *60:20 0.000737241
5 *49:10 *67:10 0.000479466
*RES
1 *200:X *49:10 34.745 
2 *49:10 *198:CLK 23 
*END

*D_NET *50 0.00111012
*CONN
*I *197:CLK I *D sky130_fd_sc_hd__dfrtp_1
*I *201:X O *D sky130_fd_sc_hd__clkbuf_16
*CAP
1 *197:CLK 0
2 *201:X 0.000526587
3 *50:10 0.000526587
4 *50:10 *197:RESET_B 9.5876e-06
5 *50:10 *65:14 4.73609e-05
*RES
1 *201:X *50:10 47.1143 
2 *50:10 *197:CLK 38 
*END

*D_NET *51 0.000369564
*CONN
*I *190:B I *D sky130_fd_sc_hd__xor2_1
*I *204:X O *D sky130_fd_sc_hd__clkbuf_1
*CAP
1 *190:B 0.000184782
2 *204:X 0.000184782
*RES
1 *204:X *190:B 49.0243 
*END

*D_NET *52 0.000796766
*CONN
*I *181:B I *D sky130_fd_sc_hd__nand2_1
*I *180:B I *D sky130_fd_sc_hd__or2_1
*I *205:X O *D sky130_fd_sc_hd__clkbuf_1
*CAP
1 *181:B 7.5165e-05
2 *180:B 0
3 *205:X 0
4 *52:12 0.000250222
5 *52:4 0.000325387
6 *181:B *53:10 5.70419e-05
7 *181:B *64:29 0
8 *52:12 *53:10 2.25419e-05
9 *12:15 *181:B 5.90675e-06
10 *12:15 *52:12 5.29672e-05
11 *13:13 *52:12 7.53384e-06
12 *40:10 *52:12 0
*RES
1 *205:X *52:4 23 
2 *52:4 *52:12 34.0807 
3 *52:12 *180:B 23 
4 *52:4 *181:B 24.9471 
*END

*D_NET *53 0.00156961
*CONN
*I *193:B I *D sky130_fd_sc_hd__xor2_1
*I *206:X O *D sky130_fd_sc_hd__clkbuf_1
*CAP
1 *193:B 0
2 *206:X 0.000453268
3 *53:10 0.000453268
4 *53:10 *64:29 0.000104562
5 *53:10 *74:16 0.000137153
6 *181:B *53:10 5.70419e-05
7 *12:15 *53:10 5.67058e-05
8 *41:10 *53:10 1.05235e-05
9 *44:14 *53:10 0.000274543
10 *52:12 *53:10 2.25419e-05
*RES
1 *206:X *53:10 48.4814 
2 *53:10 *193:B 38 
*END

*D_NET *54 0.000593932
*CONN
*I *182:B I *D sky130_fd_sc_hd__nand2_1
*I *183:B I *D sky130_fd_sc_hd__or2_1
*I *207:X O *D sky130_fd_sc_hd__clkbuf_1
*CAP
1 *182:B 0.000145096
2 *183:B 0
3 *207:X 9.93771e-05
4 *54:8 0.000244473
5 *182:B *183:A 9.14888e-05
6 *182:B *66:14 1.34966e-05
*RES
1 *207:X *54:8 24.595 
2 *54:8 *183:B 23 
3 *54:8 *182:B 26.0243 
*END

*D_NET *55 0.0062552
*CONN
*I *190:A I *D sky130_fd_sc_hd__xor2_1
*I *208:X O *D sky130_fd_sc_hd__buf_1
*CAP
1 *190:A 0
2 *208:X 0
3 *55:10 0.00197725
4 *55:4 0.00197725
5 *55:10 *57:16 0.00123002
6 *55:10 *74:12 0.000313785
7 *39:12 *55:10 0.00038009
8 *40:10 *55:10 0.000376806
*RES
1 *208:X *55:4 23 
2 *55:4 *55:10 49.2821 
3 *55:10 *190:A 38 
*END

*D_NET *56 0.00420049
*CONN
*I *179:A I *D sky130_fd_sc_hd__xor2_1
*I *209:X O *D sky130_fd_sc_hd__buf_1
*CAP
1 *179:A 0
2 *209:X 9.00306e-05
3 *56:12 0.00193787
4 *56:8 0.0020279
5 *208:A *56:8 0.000126203
6 *31:10 *56:12 1.84917e-05
*RES
1 *209:X *56:8 39.9057 
2 *56:8 *56:12 49.9243 
3 *56:12 *179:A 23 
*END

*D_NET *57 0.00399515
*CONN
*I *191:A I *D sky130_fd_sc_hd__xor2_1
*I *210:X O *D sky130_fd_sc_hd__buf_1
*CAP
1 *191:A 0
2 *210:X 9.70673e-05
3 *57:16 0.0011199
4 *57:8 0.00121697
5 *57:16 *73:10 1.84917e-05
6 *57:16 *74:12 0.000272918
7 *209:A *57:8 3.9779e-05
8 *55:10 *57:16 0.00123002
*RES
1 *210:X *57:8 39.9057 
2 *57:8 *57:16 45.8021 
3 *57:16 *191:A 23 
*END

*D_NET *58 0.00530837
*CONN
*I *187:A I *D sky130_fd_sc_hd__xor2_1
*I *211:X O *D sky130_fd_sc_hd__buf_1
*CAP
1 *187:A 0.00113677
2 *211:X 0.000425472
3 *58:8 0.00156224
4 *187:A *188:A 0.00200282
5 *58:8 *59:8 0.000126292
6 *39:8 *187:A 5.47808e-05
*RES
1 *211:X *58:8 29.5975 
2 *58:8 *187:A 49.6075 
*END

*D_NET *59 0.00398479
*CONN
*I *188:A I *D sky130_fd_sc_hd__xor2_1
*I *212:X O *D sky130_fd_sc_hd__buf_1
*CAP
1 *188:A 0.000675807
2 *212:X 0.000252036
3 *59:8 0.000927843
4 *187:A *188:A 0.00200282
5 *58:8 *59:8 0.000126292
*RES
1 *212:X *59:8 28.5204 
2 *59:8 *188:A 44.8225 
*END

*D_NET *60 0.00634198
*CONN
*I *185:A I *D sky130_fd_sc_hd__xor2_1
*I *213:X O *D sky130_fd_sc_hd__buf_1
*CAP
1 *185:A 0
2 *213:X 6.87722e-05
3 *60:20 0.00161207
4 *60:8 0.00168084
5 *60:20 *185:B 0.00010655
6 *60:20 *67:10 5.55735e-05
7 *60:20 *68:8 0.00014196
8 *196:A2 *60:20 0.000269781
9 *9:15 *60:20 0.00029959
10 *16:13 *60:8 2.5415e-05
11 *30:6 *60:20 0.00114739
12 *37:10 *60:20 0.000196809
13 *49:10 *60:20 0.000737241
*RES
1 *213:X *60:8 39.2014 
2 *60:8 *60:20 49.655 
3 *60:20 *185:A 23 
*END

*D_NET *61 0.00553276
*CONN
*I *192:A I *D sky130_fd_sc_hd__xor2_1
*I *214:X O *D sky130_fd_sc_hd__buf_1
*CAP
1 *192:A 0.000326899
2 *214:X 0.00159239
3 *61:12 0.00191929
4 *192:A *68:25 0.000763631
5 *11:15 *192:A 6.87243e-05
6 *22:15 *61:12 5.50049e-05
7 *29:6 *192:A 0.000315857
8 *29:6 *61:12 0.000264657
9 *44:8 *192:A 0.000226306
*RES
1 *214:X *61:12 46.6764 
2 *61:12 *192:A 34.4757 
*END

*D_NET *62 0.000300326
*CONN
*I *179:B I *D sky130_fd_sc_hd__xor2_1
*I *215:X O *D sky130_fd_sc_hd__clkbuf_1
*CAP
1 *179:B 0
2 *215:X 0.000123564
3 *62:10 0.000123564
4 *3:15 *62:10 1.43261e-05
5 *31:10 *62:10 3.88725e-05
*RES
1 *215:X *62:10 40.5271 
2 *62:10 *179:B 38 
*END

*D_NET *63 0.0050254
*CONN
*I *186:A I *D sky130_fd_sc_hd__xor2_1
*I *216:X O *D sky130_fd_sc_hd__buf_1
*CAP
1 *186:A 4.01155e-05
2 *216:X 7.58908e-05
3 *63:12 0.00184973
4 *63:8 0.0018855
5 *63:12 *186:B 0.000359326
6 *63:12 *202:A 0.000227185
7 *63:12 *69:10 6.41086e-05
8 *216:A *63:8 5.56306e-05
9 *16:13 *63:12 0.000213682
10 *38:10 *63:12 0.000187129
11 *48:8 *63:12 6.71074e-05
*RES
1 *216:X *63:8 39.5536 
2 *63:8 *63:12 49.9243 
3 *63:12 *186:A 23.8493 
*END

*D_NET *64 0.00718596
*CONN
*I *181:A I *D sky130_fd_sc_hd__nand2_1
*I *180:A I *D sky130_fd_sc_hd__or2_1
*I *217:X O *D sky130_fd_sc_hd__clkbuf_1
*CAP
1 *181:A 0
2 *180:A 0.000417093
3 *217:X 0
4 *64:29 0.000252434
5 *64:6 0.002527
6 *64:4 0.00185747
7 *64:6 *65:14 0.00143068
8 *181:B *64:29 0
9 *184:A1 *180:A 4.39278e-05
10 *184:A2 *180:A 1.6318e-05
11 *184:B1 *180:A 5.50049e-05
12 *184:B2 *180:A 1.43071e-05
13 *33:10 *64:29 6.27395e-05
14 *36:8 *180:A 2.38288e-05
15 *36:8 *64:6 8.67228e-06
16 *39:12 *64:29 0.000116103
17 *44:14 *64:29 0.000244437
18 *45:8 *64:29 1.13812e-05
19 *53:10 *64:29 0.000104562
*RES
1 *217:X *64:4 23 
2 *64:4 *64:6 29.2071 
3 *64:6 *180:A 30.2086 
4 *64:6 *64:29 36.4836 
5 *64:29 *181:A 23 
*END

*D_NET *65 0.00374632
*CONN
*I *193:A I *D sky130_fd_sc_hd__xor2_1
*I *218:X O *D sky130_fd_sc_hd__buf_1
*CAP
1 *193:A 0
2 *218:X 0.000115042
3 *65:14 0.000956101
4 *65:8 0.00107114
5 *201:A *65:14 2.93747e-05
6 *218:A *65:8 1.20476e-05
7 *36:8 *65:14 5.2894e-05
8 *47:10 *65:14 3.16784e-05
9 *50:10 *65:14 4.73609e-05
10 *64:6 *65:14 0.00143068
*RES
1 *218:X *65:8 39.9057 
2 *65:8 *65:14 43.275 
3 *65:14 *193:A 23 
*END

*D_NET *66 0.00450379
*CONN
*I *182:A I *D sky130_fd_sc_hd__nand2_1
*I *183:A I *D sky130_fd_sc_hd__or2_1
*I *219:X O *D sky130_fd_sc_hd__buf_1
*CAP
1 *182:A 0
2 *183:A 0.000143732
3 *219:X 9.24208e-05
4 *66:14 0.00198424
5 *66:8 0.00193293
6 *182:B *183:A 9.14888e-05
7 *182:B *66:14 1.34966e-05
8 *194:D *66:14 0.000142678
9 *34:10 *183:A 2.64616e-05
10 *35:10 *183:A 2.95526e-05
11 *44:14 *66:14 2.33782e-05
12 *46:10 *66:14 2.34132e-05
*RES
1 *219:X *66:8 39.5536 
2 *66:8 *66:14 46.1336 
3 *66:14 *183:A 26.5214 
4 *66:14 *182:A 23 
*END

*D_NET *67 0.00350382
*CONN
*I *197:RESET_B I *D sky130_fd_sc_hd__dfrtp_1
*I *198:RESET_B I *D sky130_fd_sc_hd__dfrtp_1
*I *220:X O *D sky130_fd_sc_hd__buf_1
*CAP
1 *197:RESET_B 0.000366176
2 *198:RESET_B 6.31989e-05
3 *220:X 0.000923493
4 *67:10 0.00135287
5 *29:6 *197:RESET_B 0.000124466
6 *30:6 *198:RESET_B 5.02669e-05
7 *30:6 *67:10 7.87243e-05
8 *49:10 *67:10 0.000479466
9 *50:10 *197:RESET_B 9.5876e-06
10 *60:20 *67:10 5.55735e-05
*RES
1 *220:X *67:10 40.4621 
2 *67:10 *198:RESET_B 1.02536 
3 *67:10 *197:RESET_B 36.4732 
*END

*D_NET *68 0.00278821
*CONN
*I *228:A I *D sky130_fd_sc_hd__buf_2
*I *203:A I *D sky130_fd_sc_hd__dlygate4sd3_1
*I *198:Q O *D sky130_fd_sc_hd__dfrtp_1
*CAP
1 *228:A 0
2 *203:A 8.18933e-05
3 *198:Q 9.63036e-05
4 *68:25 0.000723984
5 *68:8 0.00090218
6 *192:A *68:25 0.000763631
7 *11:15 *68:25 3.98818e-05
8 *47:10 *203:A 4.6318e-06
9 *47:10 *68:25 3.3746e-05
10 *60:20 *68:8 0.00014196
*RES
1 *198:Q *68:8 39.5743 
2 *68:8 *203:A 39.2014 
3 *68:8 *68:25 27.0764 
4 *68:25 *228:A 23 
*END

*D_NET *69 0.0019859
*CONN
*I *178:A I *D sky130_fd_sc_hd__xor2_1
*I *196:B1 I *D sky130_fd_sc_hd__o21a_1
*I *202:X O *D sky130_fd_sc_hd__dlygate4sd3_1
*CAP
1 *178:A 0
2 *196:B1 0.000365488
3 *202:X 0.000373595
4 *69:10 0.000739083
5 *196:B1 *74:16 3.92407e-05
6 *69:10 *202:A 7.88926e-05
7 *69:10 *74:16 0.000141869
8 *10:11 *196:B1 0
9 *30:6 *196:B1 9.84794e-05
10 *44:14 *196:B1 1.83667e-05
11 *44:14 *69:10 6.67764e-05
12 *47:10 *196:B1 0
13 *63:12 *69:10 6.41086e-05
*RES
1 *202:X *69:10 44.3386 
2 *69:10 *196:B1 43.655 
3 *69:10 *178:A 38 
*END

*D_NET *70 9.87992e-05
*CONN
*I *196:A1 I *D sky130_fd_sc_hd__o21a_1
*I *203:X O *D sky130_fd_sc_hd__dlygate4sd3_1
*CAP
1 *196:A1 2.10467e-05
2 *203:X 2.10467e-05
3 *30:6 *196:A1 5.67058e-05
*RES
1 *203:X *196:A1 46.6214 
*END

*D_NET *71 0.000288797
*CONN
*I *191:B I *D sky130_fd_sc_hd__xor2_1
*I *221:X O *D sky130_fd_sc_hd__clkbuf_1
*CAP
1 *191:B 7.54978e-05
2 *221:X 7.54978e-05
3 *191:B *73:10 7.73389e-05
4 *191:B *74:12 6.0462e-05
5 *8:15 *191:B 0
*RES
1 *221:X *191:B 48.2164 
*END

*D_NET *72 0.00017457
*CONN
*I *187:B I *D sky130_fd_sc_hd__xor2_1
*I *222:X O *D sky130_fd_sc_hd__clkbuf_1
*CAP
1 *187:B 8.7285e-05
2 *222:X 8.7285e-05
*RES
1 *222:X *187:B 47.595 
*END

*D_NET *73 0.00119592
*CONN
*I *188:B I *D sky130_fd_sc_hd__xor2_1
*I *223:X O *D sky130_fd_sc_hd__clkbuf_1
*CAP
1 *188:B 0
2 *223:X 0.000454828
3 *73:10 0.000454828
4 *73:10 *74:12 1.33414e-05
5 *191:B *73:10 7.73389e-05
6 *5:15 *73:10 3.29501e-05
7 *8:15 *73:10 3.22879e-05
8 *39:12 *73:10 0.000111852
9 *57:16 *73:10 1.84917e-05
*RES
1 *223:X *73:10 45.2914 
2 *73:10 *188:B 38 
*END

*D_NET *74 0.00393225
*CONN
*I *178:B I *D sky130_fd_sc_hd__xor2_1
*I *224:X O *D sky130_fd_sc_hd__buf_1
*CAP
1 *178:B 0
2 *224:X 0.000297107
3 *74:16 0.000731166
4 *74:12 0.00102827
5 *191:B *74:12 6.0462e-05
6 *196:B1 *74:16 3.92407e-05
7 *5:15 *74:12 5.82853e-05
8 *41:10 *74:16 0
9 *42:10 *74:16 0.000220511
10 *43:8 *74:16 0.00031359
11 *44:14 *74:16 0.000109224
12 *46:10 *74:16 0
13 *47:10 *74:16 0.000195324
14 *53:10 *74:16 0.000137153
15 *55:10 *74:12 0.000313785
16 *57:16 *74:12 0.000272918
17 *69:10 *74:16 0.000141869
18 *73:10 *74:12 1.33414e-05
*RES
1 *224:X *74:12 44.9807 
2 *74:12 *74:16 34.5129 
3 *74:16 *178:B 23 
*END

*D_NET *75 0.000347298
*CONN
*I *185:B I *D sky130_fd_sc_hd__xor2_1
*I *225:X O *D sky130_fd_sc_hd__clkbuf_1
*CAP
1 *185:B 9.20211e-05
2 *225:X 9.20211e-05
3 *37:10 *185:B 5.67058e-05
4 *60:20 *185:B 0.00010655
*RES
1 *225:X *185:B 48.5479 
*END

*D_NET *76 0.000415225
*CONN
*I *192:B I *D sky130_fd_sc_hd__xor2_1
*I *226:X O *D sky130_fd_sc_hd__clkbuf_1
*CAP
1 *192:B 0
2 *226:X 0.000171567
3 *76:10 0.000171567
4 *76:10 *186:B 1.94812e-05
5 *10:11 *76:10 5.26101e-05
6 *11:15 *76:10 0
*RES
1 *226:X *76:10 40.8793 
2 *76:10 *192:B 38 
*END

*D_NET *77 0.0010113
*CONN
*I *186:B I *D sky130_fd_sc_hd__xor2_1
*I *227:X O *D sky130_fd_sc_hd__clkbuf_1
*CAP
1 *186:B 0.000136804
2 *227:X 6.48195e-05
3 *77:8 0.000201624
4 *10:11 *77:8 0.00014411
5 *37:10 *77:8 8.51329e-05
6 *63:12 *186:B 0.000359326
7 *76:10 *186:B 1.94812e-05