*SPEF "ieee 1481-1999"
*DESIGN "clock_century"
*DATE "11:03:45 Monday January 19, 2026"
*VENDOR "The OpenROAD Project"
*PROGRAM "OpenROAD"
*VERSION "edf00dff99f6c40d67a30c0e22a8191c5d2ed9d6"
*DESIGN_FLOW "NAME_SCOPE LOCAL" "PIN_CAP NONE"
*DIVIDER /
*DELIMITER :
*BUS_DELIMITER []
*T_UNIT 1 NS
*C_UNIT 1 PF
*R_UNIT 1 OHM
*L_UNIT 1 HENRY

*NAME_MAP
*3 alarm_hour[0]
*4 alarm_hour[1]
*5 alarm_hour[2]
*6 alarm_hour[3]
*7 alarm_hour[4]
*8 alarm_i
*9 alarm_min[0]
*10 alarm_min[1]
*11 alarm_min[2]
*12 alarm_min[3]
*13 alarm_min[4]
*14 alarm_min[5]
*15 alarm_o
*16 am_pm
*17 button_dec
*18 button_inc
*19 clk
*20 led_day[0]
*21 led_day[10]
*22 led_day[11]
*23 led_day[12]
*24 led_day[13]
*25 led_day[1]
*26 led_day[2]
*27 led_day[3]
*28 led_day[4]
*29 led_day[5]
*30 led_day[6]
*31 led_day[7]
*32 led_day[8]
*33 led_day[9]
*34 led_hour[0]
*35 led_hour[10]
*36 led_hour[11]
*37 led_hour[12]
*38 led_hour[13]
*39 led_hour[1]
*40 led_hour[2]
*41 led_hour[3]
*42 led_hour[4]
*43 led_hour[5]
*44 led_hour[6]
*45 led_hour[7]
*46 led_hour[8]
*47 led_hour[9]
*48 led_min[0]
*49 led_min[10]
*50 led_min[11]
*51 led_min[12]
*52 led_min[13]
*53 led_min[1]
*54 led_min[2]
*55 led_min[3]
*56 led_min[4]
*57 led_min[5]
*58 led_min[6]
*59 led_min[7]
*60 led_min[8]
*61 led_min[9]
*62 led_month[0]
*63 led_month[10]
*64 led_month[11]
*65 led_month[12]
*66 led_month[13]
*67 led_month[1]
*68 led_month[2]
*69 led_month[3]
*70 led_month[4]
*71 led_month[5]
*72 led_month[6]
*73 led_month[7]
*74 led_month[8]
*75 led_month[9]
*76 led_sec[0]
*77 led_sec[10]
*78 led_sec[11]
*79 led_sec[12]
*80 led_sec[13]
*81 led_sec[1]
*82 led_sec[2]
*83 led_sec[3]
*84 led_sec[4]
*85 led_sec[5]
*86 led_sec[6]
*87 led_sec[7]
*88 led_sec[8]
*89 led_sec[9]
*90 led_year[0]
*91 led_year[10]
*92 led_year[11]
*93 led_year[12]
*94 led_year[13]
*95 led_year[1]
*96 led_year[2]
*97 led_year[3]
*98 led_year[4]
*99 led_year[5]
*100 led_year[6]
*101 led_year[7]
*102 led_year[8]
*103 led_year[9]
*104 mode[0]
*105 mode[1]
*106 reset_n
*107 select[0]
*108 select[1]
*109 select[2]
*110 select[3]
*111 select[4]
*112 select[5]
*113 clknet_0_clk
*114 clknet_1_0__leaf_clk
*115 clknet_1_1__leaf_clk
*116 day\[0\]
*117 day\[1\]
*118 day\[2\]
*119 day\[3\]
*120 day\[4\]
*121 day_num\[0\]
*122 day_num\[1\]
*123 day_num\[2\]
*124 day_num\[3\]
*125 day_num\[4\]
*126 dec\[0\]
*127 dec\[1\]
*128 dec\[2\]
*129 dec\[3\]
*130 dec\[4\]
*131 dec\[5\]
*132 done_dec\[0\]
*133 done_dec\[1\]
*134 done_dec\[2\]
*135 done_dec\[3\]
*136 done_dec\[4\]
*137 done_inc\[0\]
*138 done_inc\[1\]
*139 done_inc\[2\]
*140 done_inc\[3\]
*141 done_inc\[4\]
*142 en\[0\]
*143 en\[1\]
*144 en\[2\]
*145 en\[3\]
*146 en\[4\]
*147 en\[5\]
*148 hour\[0\]
*149 hour\[1\]
*150 hour\[2\]
*151 hour\[3\]
*152 hour\[4\]
*153 hour_num\[0\]
*154 hour_num\[1\]
*155 hour_num\[2\]
*156 hour_num\[3\]
*157 hour_num\[4\]
*158 inc\[0\]
*159 inc\[1\]
*160 inc\[2\]
*161 inc\[3\]
*162 inc\[4\]
*163 inc\[5\]
*164 minute\[0\]
*165 minute\[1\]
*166 minute\[2\]
*167 minute\[3\]
*168 minute\[4\]
*169 minute\[5\]
*170 month\[0\]
*171 month\[1\]
*172 month\[2\]
*173 month\[3\]
*174 net1
*175 net10
*176 net100
*177 net101
*178 net102
*179 net103
*180 net104
*181 net105
*182 net106
*183 net107
*184 net108
*185 net109
*186 net11
*187 net110
*188 net12
*189 net13
*190 net14
*191 net15
*192 net16
*193 net17
*194 net18
*195 net19
*196 net2
*197 net20
*198 net21
*199 net22
*200 net23
*201 net24
*202 net25
*203 net26
*204 net27
*205 net28
*206 net29
*207 net3
*208 net30
*209 net31
*210 net32
*211 net33
*212 net34
*213 net35
*214 net36
*215 net37
*216 net38
*217 net39
*218 net4
*219 net40
*220 net41
*221 net42
*222 net43
*223 net44
*224 net45
*225 net46
*226 net47
*227 net48
*228 net49
*229 net5
*230 net50
*231 net51
*232 net52
*233 net53
*234 net54
*235 net55
*236 net56
*237 net57
*238 net58
*239 net59
*240 net6
*241 net60
*242 net61
*243 net62
*244 net63
*245 net64
*246 net65
*247 net66
*248 net67
*249 net68
*250 net69
*251 net7
*252 net70
*253 net71
*254 net72
*255 net73
*256 net74
*257 net75
*258 net76
*259 net77
*260 net78
*261 net79
*262 net8
*263 net80
*264 net81
*265 net82
*266 net83
*267 net84
*268 net85
*269 net86
*270 net87
*271 net88
*272 net89
*273 net9
*274 net90
*275 net91
*276 net92
*277 net93
*278 net94
*279 net95
*280 net96
*281 net97
*282 net98
*283 net99
*284 second\[0\]
*285 second\[1\]
*286 second\[2\]
*287 second\[3\]
*288 second\[4\]
*289 second\[5\]
*290 year\[0\]
*291 year\[1\]
*292 year\[2\]
*293 year\[3\]
*294 year\[4\]
*295 year\[5\]
*296 year\[6\]
*297 ANTENNA_alarm_inst_clk
*298 ANTENNA_alarm_inst_hour\[0\]
*299 ANTENNA_alarm_inst_hour\[1\]
*300 ANTENNA_alarm_inst_hour\[2\]
*301 ANTENNA_alarm_inst_hour\[3\]
*302 ANTENNA_alarm_inst_hour\[4\]
*303 ANTENNA_alarm_inst_minute\[0\]
*304 ANTENNA_alarm_inst_minute\[1\]
*305 ANTENNA_alarm_inst_minute\[2\]
*306 ANTENNA_alarm_inst_minute\[3\]
*307 ANTENNA_alarm_inst_minute\[4\]
*308 ANTENNA_alarm_inst_minute\[5\]
*309 ANTENNA_alarm_inst_rst_n
*310 ANTENNA_clkbuf_0_clk_A
*311 ANTENNA_clkbuf_0_clk_X
*312 ANTENNA_clkbuf_1_0__f_clk_A
*313 ANTENNA_clkbuf_1_0__f_clk_X
*314 ANTENNA_clkbuf_1_1__f_clk_A
*315 ANTENNA_clkbuf_1_1__f_clk_X
*316 ANTENNA_clkload0_A
*317 ANTENNA_counter_all_inst_clk
*318 ANTENNA_counter_all_inst_day\[0\]
*319 ANTENNA_counter_all_inst_day\[1\]
*320 ANTENNA_counter_all_inst_day\[2\]
*321 ANTENNA_counter_all_inst_day\[3\]
*322 ANTENNA_counter_all_inst_day\[4\]
*323 ANTENNA_counter_all_inst_day_num\[0\]
*324 ANTENNA_counter_all_inst_day_num\[1\]
*325 ANTENNA_counter_all_inst_day_num\[2\]
*326 ANTENNA_counter_all_inst_day_num\[3\]
*327 ANTENNA_counter_all_inst_day_num\[4\]
*328 ANTENNA_counter_all_inst_dec\[0\]
*329 ANTENNA_counter_all_inst_dec\[1\]
*330 ANTENNA_counter_all_inst_dec\[2\]
*331 ANTENNA_counter_all_inst_dec\[3\]
*332 ANTENNA_counter_all_inst_dec\[4\]
*333 ANTENNA_counter_all_inst_dec\[5\]
*334 ANTENNA_counter_all_inst_done_dec\[0\]
*335 ANTENNA_counter_all_inst_done_dec\[1\]
*336 ANTENNA_counter_all_inst_done_dec\[2\]
*337 ANTENNA_counter_all_inst_done_dec\[3\]
*338 ANTENNA_counter_all_inst_done_dec\[4\]
*339 ANTENNA_counter_all_inst_done_inc\[0\]
*340 ANTENNA_counter_all_inst_done_inc\[1\]
*341 ANTENNA_counter_all_inst_done_inc\[2\]
*342 ANTENNA_counter_all_inst_done_inc\[3\]
*343 ANTENNA_counter_all_inst_done_inc\[4\]
*344 ANTENNA_counter_all_inst_en\[0\]
*345 ANTENNA_counter_all_inst_en\[1\]
*346 ANTENNA_counter_all_inst_en\[2\]
*347 ANTENNA_counter_all_inst_en\[3\]
*348 ANTENNA_counter_all_inst_en\[4\]
*349 ANTENNA_counter_all_inst_en\[5\]
*350 ANTENNA_counter_all_inst_hour\[0\]
*351 ANTENNA_counter_all_inst_hour\[1\]
*352 ANTENNA_counter_all_inst_hour\[2\]
*353 ANTENNA_counter_all_inst_hour\[3\]
*354 ANTENNA_counter_all_inst_hour\[4\]
*355 ANTENNA_counter_all_inst_hour_num\[0\]
*356 ANTENNA_counter_all_inst_hour_num\[1\]
*357 ANTENNA_counter_all_inst_hour_num\[2\]
*358 ANTENNA_counter_all_inst_hour_num\[3\]
*359 ANTENNA_counter_all_inst_hour_num\[4\]
*360 ANTENNA_counter_all_inst_inc\[0\]
*361 ANTENNA_counter_all_inst_inc\[1\]
*362 ANTENNA_counter_all_inst_inc\[2\]
*363 ANTENNA_counter_all_inst_inc\[3\]
*364 ANTENNA_counter_all_inst_inc\[4\]
*365 ANTENNA_counter_all_inst_inc\[5\]
*366 ANTENNA_counter_all_inst_minute\[0\]
*367 ANTENNA_counter_all_inst_minute\[1\]
*368 ANTENNA_counter_all_inst_minute\[2\]
*369 ANTENNA_counter_all_inst_minute\[3\]
*370 ANTENNA_counter_all_inst_minute\[4\]
*371 ANTENNA_counter_all_inst_minute\[5\]
*372 ANTENNA_counter_all_inst_month\[0\]
*373 ANTENNA_counter_all_inst_month\[1\]
*374 ANTENNA_counter_all_inst_month\[2\]
*375 ANTENNA_counter_all_inst_month\[3\]
*376 ANTENNA_counter_all_inst_reset_n
*377 ANTENNA_counter_all_inst_second\[0\]
*378 ANTENNA_counter_all_inst_second\[1\]
*379 ANTENNA_counter_all_inst_second\[2\]
*380 ANTENNA_counter_all_inst_second\[3\]
*381 ANTENNA_counter_all_inst_second\[4\]
*382 ANTENNA_counter_all_inst_second\[5\]
*383 ANTENNA_counter_all_inst_year\[0\]
*384 ANTENNA_counter_all_inst_year\[1\]
*385 ANTENNA_counter_all_inst_year\[2\]
*386 ANTENNA_counter_all_inst_year\[3\]
*387 ANTENNA_counter_all_inst_year\[4\]
*388 ANTENNA_counter_all_inst_year\[5\]
*389 ANTENNA_counter_all_inst_year\[6\]
*390 ANTENNA_decode_all_inst_day\[0\]
*391 ANTENNA_decode_all_inst_day\[1\]
*392 ANTENNA_decode_all_inst_day\[2\]
*393 ANTENNA_decode_all_inst_day\[3\]
*394 ANTENNA_decode_all_inst_day\[4\]
*395 ANTENNA_decode_all_inst_hour\[0\]
*396 ANTENNA_decode_all_inst_hour\[1\]
*397 ANTENNA_decode_all_inst_hour\[2\]
*398 ANTENNA_decode_all_inst_hour\[3\]
*399 ANTENNA_decode_all_inst_hour\[4\]
*400 ANTENNA_decode_all_inst_led_day\[0\]
*401 ANTENNA_decode_all_inst_led_day\[11\]
*402 ANTENNA_decode_all_inst_led_day\[13\]
*403 ANTENNA_decode_all_inst_led_day\[2\]
*404 ANTENNA_decode_all_inst_led_day\[5\]
*405 ANTENNA_decode_all_inst_led_day\[7\]
*406 ANTENNA_decode_all_inst_led_day\[8\]
*407 ANTENNA_decode_all_inst_led_hour\[0\]
*408 ANTENNA_decode_all_inst_led_hour\[10\]
*409 ANTENNA_decode_all_inst_led_hour\[2\]
*410 ANTENNA_decode_all_inst_led_hour\[4\]
*411 ANTENNA_decode_all_inst_led_hour\[6\]
*412 ANTENNA_decode_all_inst_led_min\[10\]
*413 ANTENNA_decode_all_inst_led_min\[11\]
*414 ANTENNA_decode_all_inst_led_min\[12\]
*415 ANTENNA_decode_all_inst_led_min\[2\]
*416 ANTENNA_decode_all_inst_led_min\[3\]
*417 ANTENNA_decode_all_inst_led_min\[4\]
*418 ANTENNA_decode_all_inst_led_min\[5\]
*419 ANTENNA_decode_all_inst_led_min\[6\]
*420 ANTENNA_decode_all_inst_led_min\[7\]
*421 ANTENNA_decode_all_inst_led_min\[8\]
*422 ANTENNA_decode_all_inst_led_min\[9\]
*423 ANTENNA_decode_all_inst_led_month\[10\]
*424 ANTENNA_decode_all_inst_led_month\[3\]
*425 ANTENNA_decode_all_inst_led_month\[5\]
*426 ANTENNA_decode_all_inst_led_month\[7\]
*427 ANTENNA_decode_all_inst_led_sec\[0\]
*428 ANTENNA_decode_all_inst_led_sec\[11\]
*429 ANTENNA_decode_all_inst_led_sec\[1\]
*430 ANTENNA_decode_all_inst_led_sec\[3\]
*431 ANTENNA_decode_all_inst_led_sec\[4\]
*432 ANTENNA_decode_all_inst_led_sec\[7\]
*433 ANTENNA_decode_all_inst_led_year\[10\]
*434 ANTENNA_decode_all_inst_led_year\[11\]
*435 ANTENNA_decode_all_inst_led_year\[2\]
*436 ANTENNA_decode_all_inst_led_year\[4\]
*437 ANTENNA_decode_all_inst_led_year\[6\]
*438 ANTENNA_decode_all_inst_minute\[0\]
*439 ANTENNA_decode_all_inst_minute\[1\]
*440 ANTENNA_decode_all_inst_minute\[2\]
*441 ANTENNA_decode_all_inst_minute\[3\]
*442 ANTENNA_decode_all_inst_minute\[4\]
*443 ANTENNA_decode_all_inst_minute\[5\]
*444 ANTENNA_decode_all_inst_month\[0\]
*445 ANTENNA_decode_all_inst_month\[1\]
*446 ANTENNA_decode_all_inst_month\[2\]
*447 ANTENNA_decode_all_inst_month\[3\]
*448 ANTENNA_decode_all_inst_second\[0\]
*449 ANTENNA_decode_all_inst_second\[1\]
*450 ANTENNA_decode_all_inst_second\[2\]
*451 ANTENNA_decode_all_inst_second\[3\]
*452 ANTENNA_decode_all_inst_second\[4\]
*453 ANTENNA_decode_all_inst_second\[5\]
*454 ANTENNA_decode_all_inst_year\[0\]
*455 ANTENNA_decode_all_inst_year\[1\]
*456 ANTENNA_decode_all_inst_year\[2\]
*457 ANTENNA_decode_all_inst_year\[3\]
*458 ANTENNA_decode_all_inst_year\[4\]
*459 ANTENNA_decode_all_inst_year\[5\]
*460 ANTENNA_decode_all_inst_year\[6\]
*461 ANTENNA_decode_day_inst_day_num\[0\]
*462 ANTENNA_decode_day_inst_day_num\[1\]
*463 ANTENNA_decode_day_inst_day_num\[2\]
*464 ANTENNA_decode_day_inst_day_num\[3\]
*465 ANTENNA_decode_day_inst_day_num\[4\]
*466 ANTENNA_decode_day_inst_hour_num\[0\]
*467 ANTENNA_decode_day_inst_hour_num\[1\]
*468 ANTENNA_decode_day_inst_hour_num\[2\]
*469 ANTENNA_decode_day_inst_hour_num\[3\]
*470 ANTENNA_decode_day_inst_hour_num\[4\]
*471 ANTENNA_decode_day_inst_month\[0\]
*472 ANTENNA_decode_day_inst_month\[1\]
*473 ANTENNA_decode_day_inst_month\[2\]
*474 ANTENNA_decode_day_inst_month\[3\]
*475 ANTENNA_decode_day_inst_year\[0\]
*476 ANTENNA_decode_day_inst_year\[1\]
*477 ANTENNA_decode_day_inst_year\[2\]
*478 ANTENNA_decode_day_inst_year\[3\]
*479 ANTENNA_decode_day_inst_year\[4\]
*480 ANTENNA_decode_day_inst_year\[5\]
*481 ANTENNA_decode_day_inst_year\[6\]
*482 ANTENNA_decode_input_inst_dec\[0\]
*483 ANTENNA_decode_input_inst_dec\[1\]
*484 ANTENNA_decode_input_inst_dec\[2\]
*485 ANTENNA_decode_input_inst_dec\[3\]
*486 ANTENNA_decode_input_inst_dec\[4\]
*487 ANTENNA_decode_input_inst_dec\[5\]
*488 ANTENNA_decode_input_inst_done_dec\[0\]
*489 ANTENNA_decode_input_inst_done_dec\[1\]
*490 ANTENNA_decode_input_inst_done_dec\[2\]
*491 ANTENNA_decode_input_inst_done_dec\[3\]
*492 ANTENNA_decode_input_inst_done_dec\[4\]
*493 ANTENNA_decode_input_inst_done_inc\[0\]
*494 ANTENNA_decode_input_inst_done_inc\[1\]
*495 ANTENNA_decode_input_inst_done_inc\[2\]
*496 ANTENNA_decode_input_inst_done_inc\[3\]
*497 ANTENNA_decode_input_inst_done_inc\[4\]
*498 ANTENNA_decode_input_inst_en\[0\]
*499 ANTENNA_decode_input_inst_en\[1\]
*500 ANTENNA_decode_input_inst_en\[2\]
*501 ANTENNA_decode_input_inst_en\[3\]
*502 ANTENNA_decode_input_inst_en\[4\]
*503 ANTENNA_decode_input_inst_en\[5\]
*504 ANTENNA_decode_input_inst_inc\[0\]
*505 ANTENNA_decode_input_inst_inc\[1\]
*506 ANTENNA_decode_input_inst_inc\[2\]
*507 ANTENNA_decode_input_inst_inc\[3\]
*508 ANTENNA_decode_input_inst_inc\[4\]
*509 ANTENNA_decode_input_inst_inc\[5\]
*510 ANTENNA_input10_A
*511 ANTENNA_input11_A
*512 ANTENNA_input12_A
*513 ANTENNA_input13_A
*514 ANTENNA_input14_A
*515 ANTENNA_input15_A
*516 ANTENNA_input16_A
*517 ANTENNA_input17_A
*518 ANTENNA_input18_A
*519 ANTENNA_input19_A
*520 ANTENNA_input1_A
*521 ANTENNA_input20_A
*522 ANTENNA_input21_A
*523 ANTENNA_input22_A
*524 ANTENNA_input23_A
*525 ANTENNA_input24_A
*526 ANTENNA_input2_A
*527 ANTENNA_input3_A
*528 ANTENNA_input4_A
*529 ANTENNA_input5_A
*530 ANTENNA_input6_A
*531 ANTENNA_input7_A
*532 ANTENNA_input8_A
*533 ANTENNA_input9_A
*534 ANTENNA_output102_A
*535 ANTENNA_output104_A
*536 ANTENNA_output106_A
*537 ANTENNA_output26_A
*538 ANTENNA_output28_A
*539 ANTENNA_output30_A
*540 ANTENNA_output32_A
*541 ANTENNA_output35_A
*542 ANTENNA_output37_A
*543 ANTENNA_output38_A
*544 ANTENNA_output40_A
*545 ANTENNA_output41_A
*546 ANTENNA_output46_A
*547 ANTENNA_output48_A
*548 ANTENNA_output50_A
*549 ANTENNA_output55_A
*550 ANTENNA_output56_A
*551 ANTENNA_output57_A
*552 ANTENNA_output60_A
*553 ANTENNA_output61_A
*554 ANTENNA_output62_A
*555 ANTENNA_output63_A
*556 ANTENNA_output64_A
*557 ANTENNA_output65_A
*558 ANTENNA_output66_A
*559 ANTENNA_output67_A
*560 ANTENNA_output69_A
*561 ANTENNA_output75_A
*562 ANTENNA_output77_A
*563 ANTENNA_output79_A
*564 ANTENNA_output82_A
*565 ANTENNA_output84_A
*566 ANTENNA_output87_A
*567 ANTENNA_output89_A
*568 ANTENNA_output90_A
*569 ANTENNA_output93_A
*570 ANTENNA_output97_A
*571 ANTENNA_output98_A
*572 ANTENNA_wire110_X
*573 FILLER_0_109
*574 FILLER_0_113
*575 FILLER_0_125
*576 FILLER_0_137
*577 FILLER_0_141
*578 FILLER_0_15
*579 FILLER_0_153
*580 FILLER_0_165
*581 FILLER_0_169
*582 FILLER_0_181
*583 FILLER_0_193
*584 FILLER_0_197
*585 FILLER_0_209
*586 FILLER_0_221
*587 FILLER_0_225
*588 FILLER_0_237
*589 FILLER_0_249
*590 FILLER_0_253
*591 FILLER_0_265
*592 FILLER_0_27
*593 FILLER_0_277
*594 FILLER_0_281
*595 FILLER_0_29
*596 FILLER_0_293
*597 FILLER_0_3
*598 FILLER_0_305
*599 FILLER_0_309
*600 FILLER_0_321
*601 FILLER_0_333
*602 FILLER_0_337
*603 FILLER_0_349
*604 FILLER_0_361
*605 FILLER_0_365
*606 FILLER_0_377
*607 FILLER_0_385
*608 FILLER_0_391
*609 FILLER_0_393
*610 FILLER_0_399
*611 FILLER_0_405
*612 FILLER_0_41
*613 FILLER_0_412
*614 FILLER_0_419
*615 FILLER_0_421
*616 FILLER_0_427
*617 FILLER_0_433
*618 FILLER_0_440
*619 FILLER_0_454
*620 FILLER_0_461
*621 FILLER_0_469
*622 FILLER_0_475
*623 FILLER_0_482
*624 FILLER_0_494
*625 FILLER_0_502
*626 FILLER_0_505
*627 FILLER_0_517
*628 FILLER_0_529
*629 FILLER_0_53
*630 FILLER_0_533
*631 FILLER_0_545
*632 FILLER_0_553
*633 FILLER_0_559
*634 FILLER_0_566
*635 FILLER_0_57
*636 FILLER_0_573
*637 FILLER_0_581
*638 FILLER_0_587
*639 FILLER_0_594
*640 FILLER_0_601
*641 FILLER_0_608
*642 FILLER_0_615
*643 FILLER_0_622
*644 FILLER_0_629
*645 FILLER_0_636
*646 FILLER_0_643
*647 FILLER_0_645
*648 FILLER_0_657
*649 FILLER_0_669
*650 FILLER_0_673
*651 FILLER_0_685
*652 FILLER_0_69
*653 FILLER_0_697
*654 FILLER_0_701
*655 FILLER_0_713
*656 FILLER_0_725
*657 FILLER_0_729
*658 FILLER_0_741
*659 FILLER_0_753
*660 FILLER_0_757
*661 FILLER_0_769
*662 FILLER_0_781
*663 FILLER_0_785
*664 FILLER_0_797
*665 FILLER_0_809
*666 FILLER_0_81
*667 FILLER_0_813
*668 FILLER_0_825
*669 FILLER_0_837
*670 FILLER_0_841
*671 FILLER_0_85
*672 FILLER_0_97
*673 FILLER_100_109
*674 FILLER_100_121
*675 FILLER_100_133
*676 FILLER_100_139
*677 FILLER_100_141
*678 FILLER_100_15
*679 FILLER_100_153
*680 FILLER_100_165
*681 FILLER_100_177
*682 FILLER_100_189
*683 FILLER_100_195
*684 FILLER_100_197
*685 FILLER_100_209
*686 FILLER_100_221
*687 FILLER_100_233
*688 FILLER_100_245
*689 FILLER_100_251
*690 FILLER_100_253
*691 FILLER_100_265
*692 FILLER_100_27
*693 FILLER_100_277
*694 FILLER_100_289
*695 FILLER_100_29
*696 FILLER_100_3
*697 FILLER_100_301
*698 FILLER_100_307
*699 FILLER_100_309
*700 FILLER_100_321
*701 FILLER_100_333
*702 FILLER_100_345
*703 FILLER_100_357
*704 FILLER_100_363
*705 FILLER_100_365
*706 FILLER_100_377
*707 FILLER_100_389
*708 FILLER_100_401
*709 FILLER_100_41
*710 FILLER_100_413
*711 FILLER_100_419
*712 FILLER_100_421
*713 FILLER_100_433
*714 FILLER_100_445
*715 FILLER_100_457
*716 FILLER_100_469
*717 FILLER_100_475
*718 FILLER_100_477
*719 FILLER_100_489
*720 FILLER_100_501
*721 FILLER_100_513
*722 FILLER_100_525
*723 FILLER_100_53
*724 FILLER_100_531
*725 FILLER_100_533
*726 FILLER_100_545
*727 FILLER_100_557
*728 FILLER_100_569
*729 FILLER_100_581
*730 FILLER_100_587
*731 FILLER_100_589
*732 FILLER_100_601
*733 FILLER_100_613
*734 FILLER_100_625
*735 FILLER_100_637
*736 FILLER_100_643
*737 FILLER_100_645
*738 FILLER_100_65
*739 FILLER_100_657
*740 FILLER_100_669
*741 FILLER_100_681
*742 FILLER_100_693
*743 FILLER_100_699
*744 FILLER_100_701
*745 FILLER_100_713
*746 FILLER_100_725
*747 FILLER_100_737
*748 FILLER_100_749
*749 FILLER_100_755
*750 FILLER_100_757
*751 FILLER_100_769
*752 FILLER_100_77
*753 FILLER_100_781
*754 FILLER_100_793
*755 FILLER_100_805
*756 FILLER_100_811
*757 FILLER_100_813
*758 FILLER_100_825
*759 FILLER_100_83
*760 FILLER_100_837
*761 FILLER_100_841
*762 FILLER_100_85
*763 FILLER_100_97
*764 FILLER_101_109
*765 FILLER_101_113
*766 FILLER_101_125
*767 FILLER_101_137
*768 FILLER_101_141
*769 FILLER_101_15
*770 FILLER_101_153
*771 FILLER_101_165
*772 FILLER_101_169
*773 FILLER_101_181
*774 FILLER_101_193
*775 FILLER_101_197
*776 FILLER_101_209
*777 FILLER_101_221
*778 FILLER_101_225
*779 FILLER_101_237
*780 FILLER_101_249
*781 FILLER_101_253
*782 FILLER_101_265
*783 FILLER_101_27
*784 FILLER_101_277
*785 FILLER_101_281
*786 FILLER_101_29
*787 FILLER_101_293
*788 FILLER_101_3
*789 FILLER_101_301
*790 FILLER_101_317
*791 FILLER_101_324
*792 FILLER_101_331
*793 FILLER_101_345
*794 FILLER_101_352
*795 FILLER_101_359
*796 FILLER_101_365
*797 FILLER_101_373
*798 FILLER_101_380
*799 FILLER_101_385
*800 FILLER_101_393
*801 FILLER_101_399
*802 FILLER_101_406
*803 FILLER_101_41
*804 FILLER_101_413
*805 FILLER_101_427
*806 FILLER_101_434
*807 FILLER_101_441
*808 FILLER_101_449
*809 FILLER_101_455
*810 FILLER_101_462
*811 FILLER_101_469
*812 FILLER_101_477
*813 FILLER_101_483
*814 FILLER_101_490
*815 FILLER_101_497
*816 FILLER_101_505
*817 FILLER_101_511
*818 FILLER_101_518
*819 FILLER_101_525
*820 FILLER_101_53
*821 FILLER_101_533
*822 FILLER_101_539
*823 FILLER_101_546
*824 FILLER_101_553
*825 FILLER_101_561
*826 FILLER_101_567
*827 FILLER_101_57
*828 FILLER_101_574
*829 FILLER_101_581
*830 FILLER_101_589
*831 FILLER_101_595
*832 FILLER_101_602
*833 FILLER_101_609
*834 FILLER_101_617
*835 FILLER_101_623
*836 FILLER_101_630
*837 FILLER_101_637
*838 FILLER_101_651
*839 FILLER_101_658
*840 FILLER_101_665
*841 FILLER_101_679
*842 FILLER_101_686
*843 FILLER_101_69
*844 FILLER_101_693
*845 FILLER_101_707
*846 FILLER_101_719
*847 FILLER_101_727
*848 FILLER_101_729
*849 FILLER_101_741
*850 FILLER_101_753
*851 FILLER_101_757
*852 FILLER_101_769
*853 FILLER_101_781
*854 FILLER_101_785
*855 FILLER_101_797
*856 FILLER_101_809
*857 FILLER_101_81
*858 FILLER_101_813
*859 FILLER_101_825
*860 FILLER_101_837
*861 FILLER_101_841
*862 FILLER_101_85
*863 FILLER_101_97
*864 FILLER_10_15
*865 FILLER_10_209
*866 FILLER_10_221
*867 FILLER_10_233
*868 FILLER_10_235
*869 FILLER_10_247
*870 FILLER_10_259
*871 FILLER_10_27
*872 FILLER_10_271
*873 FILLER_10_283
*874 FILLER_10_289
*875 FILLER_10_29
*876 FILLER_10_291
*877 FILLER_10_3
*878 FILLER_10_303
*879 FILLER_10_315
*880 FILLER_10_327
*881 FILLER_10_339
*882 FILLER_10_345
*883 FILLER_10_347
*884 FILLER_10_353
*885 FILLER_10_41
*886 FILLER_10_49
*887 FILLER_10_513
*888 FILLER_10_525
*889 FILLER_10_537
*890 FILLER_10_539
*891 FILLER_10_551
*892 FILLER_10_563
*893 FILLER_10_731
*894 FILLER_10_743
*895 FILLER_10_755
*896 FILLER_10_757
*897 FILLER_10_769
*898 FILLER_10_781
*899 FILLER_10_793
*900 FILLER_10_805
*901 FILLER_10_811
*902 FILLER_10_813
*903 FILLER_10_825
*904 FILLER_10_837
*905 FILLER_10_841
*906 FILLER_11_15
*907 FILLER_11_209
*908 FILLER_11_221
*909 FILLER_11_233
*910 FILLER_11_245
*911 FILLER_11_257
*912 FILLER_11_261
*913 FILLER_11_263
*914 FILLER_11_27
*915 FILLER_11_275
*916 FILLER_11_287
*917 FILLER_11_299
*918 FILLER_11_3
*919 FILLER_11_311
*920 FILLER_11_317
*921 FILLER_11_319
*922 FILLER_11_331
*923 FILLER_11_343
*924 FILLER_11_351
*925 FILLER_11_39
*926 FILLER_11_47
*927 FILLER_11_513
*928 FILLER_11_525
*929 FILLER_11_537
*930 FILLER_11_549
*931 FILLER_11_561
*932 FILLER_11_565
*933 FILLER_11_567
*934 FILLER_11_731
*935 FILLER_11_743
*936 FILLER_11_755
*937 FILLER_11_767
*938 FILLER_11_779
*939 FILLER_11_783
*940 FILLER_11_785
*941 FILLER_11_797
*942 FILLER_11_809
*943 FILLER_11_821
*944 FILLER_11_833
*945 FILLER_11_839
*946 FILLER_11_841
*947 FILLER_12_15
*948 FILLER_12_209
*949 FILLER_12_221
*950 FILLER_12_233
*951 FILLER_12_235
*952 FILLER_12_247
*953 FILLER_12_259
*954 FILLER_12_27
*955 FILLER_12_271
*956 FILLER_12_283
*957 FILLER_12_289
*958 FILLER_12_29
*959 FILLER_12_291
*960 FILLER_12_3
*961 FILLER_12_303
*962 FILLER_12_315
*963 FILLER_12_327
*964 FILLER_12_339
*965 FILLER_12_345
*966 FILLER_12_347
*967 FILLER_12_353
*968 FILLER_12_41
*969 FILLER_12_49
*970 FILLER_12_513
*971 FILLER_12_525
*972 FILLER_12_537
*973 FILLER_12_539
*974 FILLER_12_551
*975 FILLER_12_563
*976 FILLER_12_733
*977 FILLER_12_745
*978 FILLER_12_753
*979 FILLER_12_757
*980 FILLER_12_769
*981 FILLER_12_781
*982 FILLER_12_793
*983 FILLER_12_805
*984 FILLER_12_811
*985 FILLER_12_813
*986 FILLER_12_825
*987 FILLER_12_837
*988 FILLER_12_841
*989 FILLER_13_15
*990 FILLER_13_211
*991 FILLER_13_223
*992 FILLER_13_235
*993 FILLER_13_247
*994 FILLER_13_259
*995 FILLER_13_263
*996 FILLER_13_27
*997 FILLER_13_275
*998 FILLER_13_287
*999 FILLER_13_299
*1000 FILLER_13_3
*1001 FILLER_13_311
*1002 FILLER_13_317
*1003 FILLER_13_319
*1004 FILLER_13_331
*1005 FILLER_13_343
*1006 FILLER_13_351
*1007 FILLER_13_39
*1008 FILLER_13_47
*1009 FILLER_13_513
*1010 FILLER_13_525
*1011 FILLER_13_537
*1012 FILLER_13_549
*1013 FILLER_13_561
*1014 FILLER_13_565
*1015 FILLER_13_567
*1016 FILLER_13_731
*1017 FILLER_13_743
*1018 FILLER_13_755
*1019 FILLER_13_767
*1020 FILLER_13_779
*1021 FILLER_13_783
*1022 FILLER_13_785
*1023 FILLER_13_797
*1024 FILLER_13_809
*1025 FILLER_13_821
*1026 FILLER_13_833
*1027 FILLER_13_839
*1028 FILLER_13_841
*1029 FILLER_14_15
*1030 FILLER_14_209
*1031 FILLER_14_221
*1032 FILLER_14_233
*1033 FILLER_14_235
*1034 FILLER_14_247
*1035 FILLER_14_259
*1036 FILLER_14_27
*1037 FILLER_14_271
*1038 FILLER_14_283
*1039 FILLER_14_289
*1040 FILLER_14_29
*1041 FILLER_14_291
*1042 FILLER_14_3
*1043 FILLER_14_303
*1044 FILLER_14_315
*1045 FILLER_14_327
*1046 FILLER_14_339
*1047 FILLER_14_345
*1048 FILLER_14_347
*1049 FILLER_14_353
*1050 FILLER_14_41
*1051 FILLER_14_49
*1052 FILLER_14_513
*1053 FILLER_14_525
*1054 FILLER_14_537
*1055 FILLER_14_539
*1056 FILLER_14_551
*1057 FILLER_14_563
*1058 FILLER_14_733
*1059 FILLER_14_745
*1060 FILLER_14_753
*1061 FILLER_14_757
*1062 FILLER_14_769
*1063 FILLER_14_781
*1064 FILLER_14_793
*1065 FILLER_14_805
*1066 FILLER_14_811
*1067 FILLER_14_813
*1068 FILLER_14_825
*1069 FILLER_14_837
*1070 FILLER_14_841
*1071 FILLER_15_15
*1072 FILLER_15_209
*1073 FILLER_15_221
*1074 FILLER_15_233
*1075 FILLER_15_245
*1076 FILLER_15_257
*1077 FILLER_15_261
*1078 FILLER_15_263
*1079 FILLER_15_27
*1080 FILLER_15_275
*1081 FILLER_15_287
*1082 FILLER_15_299
*1083 FILLER_15_3
*1084 FILLER_15_311
*1085 FILLER_15_317
*1086 FILLER_15_319
*1087 FILLER_15_331
*1088 FILLER_15_343
*1089 FILLER_15_351
*1090 FILLER_15_39
*1091 FILLER_15_47
*1092 FILLER_15_513
*1093 FILLER_15_525
*1094 FILLER_15_537
*1095 FILLER_15_549
*1096 FILLER_15_561
*1097 FILLER_15_565
*1098 FILLER_15_567
*1099 FILLER_15_733
*1100 FILLER_15_745
*1101 FILLER_15_757
*1102 FILLER_15_769
*1103 FILLER_15_781
*1104 FILLER_15_785
*1105 FILLER_15_797
*1106 FILLER_15_809
*1107 FILLER_15_821
*1108 FILLER_15_833
*1109 FILLER_15_839
*1110 FILLER_15_841
*1111 FILLER_16_15
*1112 FILLER_16_209
*1113 FILLER_16_221
*1114 FILLER_16_233
*1115 FILLER_16_235
*1116 FILLER_16_247
*1117 FILLER_16_259
*1118 FILLER_16_27
*1119 FILLER_16_271
*1120 FILLER_16_283
*1121 FILLER_16_289
*1122 FILLER_16_29
*1123 FILLER_16_291
*1124 FILLER_16_3
*1125 FILLER_16_303
*1126 FILLER_16_315
*1127 FILLER_16_327
*1128 FILLER_16_339
*1129 FILLER_16_345
*1130 FILLER_16_347
*1131 FILLER_16_353
*1132 FILLER_16_41
*1133 FILLER_16_49
*1134 FILLER_16_513
*1135 FILLER_16_525
*1136 FILLER_16_537
*1137 FILLER_16_539
*1138 FILLER_16_551
*1139 FILLER_16_563
*1140 FILLER_16_733
*1141 FILLER_16_745
*1142 FILLER_16_753
*1143 FILLER_16_757
*1144 FILLER_16_769
*1145 FILLER_16_781
*1146 FILLER_16_793
*1147 FILLER_16_805
*1148 FILLER_16_811
*1149 FILLER_16_813
*1150 FILLER_16_825
*1151 FILLER_16_837
*1152 FILLER_16_841
*1153 FILLER_17_15
*1154 FILLER_17_209
*1155 FILLER_17_221
*1156 FILLER_17_233
*1157 FILLER_17_245
*1158 FILLER_17_257
*1159 FILLER_17_261
*1160 FILLER_17_263
*1161 FILLER_17_27
*1162 FILLER_17_275
*1163 FILLER_17_287
*1164 FILLER_17_299
*1165 FILLER_17_3
*1166 FILLER_17_311
*1167 FILLER_17_317
*1168 FILLER_17_319
*1169 FILLER_17_331
*1170 FILLER_17_343
*1171 FILLER_17_351
*1172 FILLER_17_39
*1173 FILLER_17_47
*1174 FILLER_17_513
*1175 FILLER_17_525
*1176 FILLER_17_537
*1177 FILLER_17_549
*1178 FILLER_17_561
*1179 FILLER_17_565
*1180 FILLER_17_567
*1181 FILLER_17_733
*1182 FILLER_17_745
*1183 FILLER_17_757
*1184 FILLER_17_769
*1185 FILLER_17_781
*1186 FILLER_17_785
*1187 FILLER_17_797
*1188 FILLER_17_809
*1189 FILLER_17_821
*1190 FILLER_17_833
*1191 FILLER_17_839
*1192 FILLER_17_841
*1193 FILLER_18_15
*1194 FILLER_18_209
*1195 FILLER_18_221
*1196 FILLER_18_233
*1197 FILLER_18_235
*1198 FILLER_18_247
*1199 FILLER_18_259
*1200 FILLER_18_27
*1201 FILLER_18_271
*1202 FILLER_18_283
*1203 FILLER_18_289
*1204 FILLER_18_29
*1205 FILLER_18_291
*1206 FILLER_18_3
*1207 FILLER_18_303
*1208 FILLER_18_315
*1209 FILLER_18_327
*1210 FILLER_18_339
*1211 FILLER_18_345
*1212 FILLER_18_347
*1213 FILLER_18_353
*1214 FILLER_18_41
*1215 FILLER_18_49
*1216 FILLER_18_513
*1217 FILLER_18_525
*1218 FILLER_18_537
*1219 FILLER_18_539
*1220 FILLER_18_551
*1221 FILLER_18_563
*1222 FILLER_18_731
*1223 FILLER_18_743
*1224 FILLER_18_755
*1225 FILLER_18_757
*1226 FILLER_18_769
*1227 FILLER_18_781
*1228 FILLER_18_793
*1229 FILLER_18_805
*1230 FILLER_18_811
*1231 FILLER_18_813
*1232 FILLER_18_825
*1233 FILLER_18_837
*1234 FILLER_18_841
*1235 FILLER_19_15
*1236 FILLER_19_209
*1237 FILLER_19_221
*1238 FILLER_19_233
*1239 FILLER_19_245
*1240 FILLER_19_257
*1241 FILLER_19_261
*1242 FILLER_19_263
*1243 FILLER_19_27
*1244 FILLER_19_275
*1245 FILLER_19_287
*1246 FILLER_19_299
*1247 FILLER_19_3
*1248 FILLER_19_311
*1249 FILLER_19_317
*1250 FILLER_19_319
*1251 FILLER_19_331
*1252 FILLER_19_343
*1253 FILLER_19_351
*1254 FILLER_19_39
*1255 FILLER_19_47
*1256 FILLER_19_513
*1257 FILLER_19_525
*1258 FILLER_19_537
*1259 FILLER_19_549
*1260 FILLER_19_561
*1261 FILLER_19_565
*1262 FILLER_19_567
*1263 FILLER_19_733
*1264 FILLER_19_745
*1265 FILLER_19_757
*1266 FILLER_19_769
*1267 FILLER_19_781
*1268 FILLER_19_785
*1269 FILLER_19_797
*1270 FILLER_19_809
*1271 FILLER_19_821
*1272 FILLER_19_833
*1273 FILLER_19_839
*1274 FILLER_19_841
*1275 FILLER_1_105
*1276 FILLER_1_111
*1277 FILLER_1_113
*1278 FILLER_1_125
*1279 FILLER_1_137
*1280 FILLER_1_149
*1281 FILLER_1_15
*1282 FILLER_1_161
*1283 FILLER_1_167
*1284 FILLER_1_169
*1285 FILLER_1_181
*1286 FILLER_1_193
*1287 FILLER_1_205
*1288 FILLER_1_217
*1289 FILLER_1_223
*1290 FILLER_1_225
*1291 FILLER_1_237
*1292 FILLER_1_249
*1293 FILLER_1_261
*1294 FILLER_1_27
*1295 FILLER_1_273
*1296 FILLER_1_279
*1297 FILLER_1_281
*1298 FILLER_1_293
*1299 FILLER_1_3
*1300 FILLER_1_305
*1301 FILLER_1_317
*1302 FILLER_1_329
*1303 FILLER_1_335
*1304 FILLER_1_337
*1305 FILLER_1_349
*1306 FILLER_1_361
*1307 FILLER_1_373
*1308 FILLER_1_385
*1309 FILLER_1_39
*1310 FILLER_1_391
*1311 FILLER_1_393
*1312 FILLER_1_405
*1313 FILLER_1_417
*1314 FILLER_1_429
*1315 FILLER_1_441
*1316 FILLER_1_447
*1317 FILLER_1_449
*1318 FILLER_1_461
*1319 FILLER_1_473
*1320 FILLER_1_485
*1321 FILLER_1_497
*1322 FILLER_1_503
*1323 FILLER_1_505
*1324 FILLER_1_51
*1325 FILLER_1_517
*1326 FILLER_1_529
*1327 FILLER_1_541
*1328 FILLER_1_55
*1329 FILLER_1_553
*1330 FILLER_1_559
*1331 FILLER_1_561
*1332 FILLER_1_57
*1333 FILLER_1_573
*1334 FILLER_1_585
*1335 FILLER_1_597
*1336 FILLER_1_609
*1337 FILLER_1_615
*1338 FILLER_1_617
*1339 FILLER_1_629
*1340 FILLER_1_641
*1341 FILLER_1_653
*1342 FILLER_1_665
*1343 FILLER_1_671
*1344 FILLER_1_673
*1345 FILLER_1_685
*1346 FILLER_1_69
*1347 FILLER_1_697
*1348 FILLER_1_709
*1349 FILLER_1_721
*1350 FILLER_1_727
*1351 FILLER_1_729
*1352 FILLER_1_741
*1353 FILLER_1_753
*1354 FILLER_1_765
*1355 FILLER_1_777
*1356 FILLER_1_783
*1357 FILLER_1_785
*1358 FILLER_1_797
*1359 FILLER_1_809
*1360 FILLER_1_81
*1361 FILLER_1_821
*1362 FILLER_1_833
*1363 FILLER_1_839
*1364 FILLER_1_841
*1365 FILLER_1_93
*1366 FILLER_20_15
*1367 FILLER_20_209
*1368 FILLER_20_221
*1369 FILLER_20_233
*1370 FILLER_20_235