*SPEF "ieee 1481-1999"
*DESIGN "decode_day"
*DATE "20:14:34 Thursday January 15, 2026"
*VENDOR "The OpenROAD Project"
*PROGRAM "OpenROAD"
*VERSION "edf00dff99f6c40d67a30c0e22a8191c5d2ed9d6"
*DESIGN_FLOW "NAME_SCOPE LOCAL" "PIN_CAP NONE"
*DIVIDER /
*DELIMITER :
*BUS_DELIMITER []
*T_UNIT 1 NS
*C_UNIT 1 PF
*R_UNIT 1 OHM
*L_UNIT 1 HENRY

*NAME_MAP
*3 am_pm
*4 day_num[0]
*5 day_num[1]
*6 net14
*7 net15
*8 net16
*9 net12
*10 net13
*11 hour_num[2]
*12 net17
*13 hour_num[4]
*14 month[0]
*15 month[1]
*16 month[2]
*17 month[3]
*18 year[0]
*19 year[1]
*20 year[2]
*21 year[3]
*22 year[4]
*23 year[5]
*24 year[6]
*25 _00_
*26 _01_
*27 _02_
*28 _03_
*29 net1
*30 net10
*31 net11
*32 net2
*33 net3
*34 net4
*35 net5
*36 net6
*37 net7
*38 net8
*39 net9
*40 FILLER_0_12
*41 FILLER_0_21
*42 FILLER_0_27
*43 FILLER_0_32
*44 FILLER_0_41
*45 FILLER_0_47
*46 FILLER_0_51
*47 FILLER_0_55
*48 FILLER_0_57
*49 FILLER_0_61
*50 FILLER_0_67
*51 FILLER_0_7
*52 FILLER_0_75
*53 FILLER_1_15
*54 FILLER_1_27
*55 FILLER_1_3
*56 FILLER_1_39
*57 FILLER_1_51
*58 FILLER_1_55
*59 FILLER_1_57
*60 FILLER_1_69
*61 FILLER_1_77
*62 FILLER_2_15
*63 FILLER_2_27
*64 FILLER_2_29
*65 FILLER_2_3
*66 FILLER_2_41
*67 FILLER_2_53
*68 FILLER_2_65
*69 FILLER_2_77
*70 FILLER_3_15
*71 FILLER_3_27
*72 FILLER_3_3
*73 FILLER_3_39
*74 FILLER_3_51
*75 FILLER_3_55
*76 FILLER_3_57
*77 FILLER_3_69
*78 FILLER_4_15
*79 FILLER_4_27
*80 FILLER_4_29
*81 FILLER_4_3
*82 FILLER_4_41
*83 FILLER_4_53
*84 FILLER_4_65
*85 FILLER_4_77
*86 FILLER_5_15
*87 FILLER_5_27
*88 FILLER_5_3
*89 FILLER_5_39
*90 FILLER_5_51
*91 FILLER_5_55
*92 FILLER_5_57
*93 FILLER_5_69
*94 FILLER_6_15
*95 FILLER_6_27
*96 FILLER_6_29
*97 FILLER_6_3
*98 FILLER_6_41
*99 FILLER_6_53
*100 FILLER_6_65
*101 FILLER_6_77
*102 FILLER_7_15
*103 FILLER_7_27
*104 FILLER_7_3
*105 FILLER_7_39
*106 FILLER_7_51
*107 FILLER_7_55
*108 FILLER_7_57
*109 FILLER_7_69
*110 FILLER_8_15
*111 FILLER_8_27
*112 FILLER_8_29
*113 FILLER_8_3
*114 FILLER_8_41
*115 FILLER_8_47
*116 FILLER_8_54
*117 FILLER_8_58
*118 FILLER_8_70
*119 FILLER_8_78
*120 FILLER_9_14
*121 FILLER_9_18
*122 FILLER_9_23
*123 FILLER_9_27
*124 FILLER_9_29
*125 FILLER_9_41
*126 FILLER_9_47
*127 FILLER_9_69
*128 FILLER_9_77
*129 FILLER_9_9
*130 PHY_EDGE_ROW_0_Left_10
*131 PHY_EDGE_ROW_0_Right_0
*132 PHY_EDGE_ROW_1_Left_11
*133 PHY_EDGE_ROW_1_Right_1
*134 PHY_EDGE_ROW_2_Left_12
*135 PHY_EDGE_ROW_2_Right_2
*136 PHY_EDGE_ROW_3_Left_13
*137 PHY_EDGE_ROW_3_Right_3
*138 PHY_EDGE_ROW_4_Left_14
*139 PHY_EDGE_ROW_4_Right_4
*140 PHY_EDGE_ROW_5_Left_15
*141 PHY_EDGE_ROW_5_Right_5
*142 PHY_EDGE_ROW_6_Left_16
*143 PHY_EDGE_ROW_6_Right_6
*144 PHY_EDGE_ROW_7_Left_17
*145 PHY_EDGE_ROW_7_Right_7
*146 PHY_EDGE_ROW_8_Left_18
*147 PHY_EDGE_ROW_8_Right_8
*148 PHY_EDGE_ROW_9_Left_19
*149 PHY_EDGE_ROW_9_Right_9
*150 TAP_TAPCELL_ROW_0_20
*151 TAP_TAPCELL_ROW_0_21
*152 TAP_TAPCELL_ROW_1_22
*153 TAP_TAPCELL_ROW_2_23
*154 TAP_TAPCELL_ROW_3_24
*155 TAP_TAPCELL_ROW_4_25
*156 TAP_TAPCELL_ROW_5_26
*157 TAP_TAPCELL_ROW_6_27
*158 TAP_TAPCELL_ROW_7_28
*159 TAP_TAPCELL_ROW_8_29
*160 TAP_TAPCELL_ROW_9_30
*161 TAP_TAPCELL_ROW_9_31
*162 _04_
*163 _05_
*164 _06_
*165 _07_
*166 _08_
*167 _09_
*168 _10_
*169 _17_
*170 decode_day_12
*171 decode_day_13
*172 decode_day_14
*173 decode_day_15
*174 decode_day_16
*175 decode_day_17
*176 input1
*177 input2
*178 input3
*179 input4
*180 input5
*181 input6
*182 input7
*183 output10
*184 output11
*185 output8
*186 output9

*PORTS
am_pm I
day_num[0] O
day_num[1] O
day_num[2] O
day_num[3] O
day_num[4] O
hour_num[0] O
hour_num[1] O
hour_num[2] O
hour_num[3] O
hour_num[4] O
month[0] I
month[1] I
month[2] I
month[3] I
year[0] I
year[1] I
year[2] I
year[3] I
year[4] I
year[5] I
year[6] I

*D_NET *3 0.00153104
*CONN
*P am_pm I
*I *176:A I *D sky130_fd_sc_hd__buf_1
*CAP
1 am_pm 0.000716394
2 *176:A 0.000716394
3 *176:A *165:B 4.99619e-05
4 *176:A *181:A 4.82919e-05
*RES
1 am_pm *176:A 16.065 
*END

*D_NET *4 0.00105109
*CONN
*P day_num[0] O
*I *185:X O *D sky130_fd_sc_hd__buf_2
*CAP
1 day_num[0] 0.000525543
2 *185:X 0.000525543
3 day_num[0] day_num[1] 0
*RES
1 *185:X day_num[0] 11.91 
*END

*D_NET *5 0.000812835
*CONN
*P day_num[1] O
*I *186:X O *D sky130_fd_sc_hd__buf_2
*CAP
1 day_num[1] 0.000389134
2 *186:X 0.000389134
3 day_num[1] day_num[2] 0
4 day_num[1] *185:A 3.45679e-05
5 day_num[0] day_num[1] 0
*RES
1 *186:X day_num[1] 10.185 
*END

*D_NET *6 0.000761878
*CONN
*P day_num[2] O
*I *172:HI O *D sky130_fd_sc_hd__conb_1
*CAP
1 day_num[2] 0.000367178
2 *172:HI 0.000367178
3 day_num[2] day_num[3] 0
4 day_num[2] *186:A 2.75229e-05
5 day_num[1] day_num[2] 0
*RES
1 *172:HI day_num[2] 9.84 
*END

*D_NET *7 0.000821981
*CONN
*P day_num[3] O
*I *173:HI O *D sky130_fd_sc_hd__conb_1
*CAP
1 day_num[3] 0.000393707
2 *173:HI 0.000393707
3 day_num[3] day_num[4] 0
4 day_num[3] *185:A 3.45679e-05
5 day_num[2] day_num[3] 0
*RES
1 *173:HI day_num[3] 10.185 
*END

*D_NET *8 0.00075698
*CONN
*P day_num[4] O
*I *174:HI O *D sky130_fd_sc_hd__conb_1
*CAP
1 day_num[4] 0.000369298
2 *174:HI 0.000369298
3 day_num[4] hour_num[0] 0
4 day_num[4] *185:A 1.83847e-05
5 day_num[3] day_num[4] 0
*RES
1 *174:HI day_num[4] 9.84 
*END

*D_NET *9 0.000791045
*CONN
*P hour_num[0] O
*I *170:LO O *D sky130_fd_sc_hd__conb_1
*CAP
1 hour_num[0] 0.000395522
2 *170:LO 0.000395522
3 hour_num[0] hour_num[1] 0
4 day_num[4] hour_num[0] 0
*RES
1 *170:LO hour_num[0] 10.35 
*END

*D_NET *10 0.000786235
*CONN
*P hour_num[1] O
*I *171:LO O *D sky130_fd_sc_hd__conb_1
*CAP
1 hour_num[1] 0.000393118
2 *171:LO 0.000393118
3 hour_num[1] hour_num[2] 0
4 hour_num[0] hour_num[1] 0
*RES
1 *171:LO hour_num[1] 10.35 
*END

*D_NET *11 0.00089547
*CONN
*P hour_num[2] O
*I *183:X O *D sky130_fd_sc_hd__buf_2
*CAP
1 hour_num[2] 0.00041779
2 *183:X 0.00041779
3 hour_num[2] hour_num[3] 0
4 hour_num[2] *162:A 3.23663e-05
5 hour_num[2] *183:A 2.75229e-05
6 hour_num[1] hour_num[2] 0
*RES
1 *183:X hour_num[2] 10.53 
*END

*D_NET *12 0.00104159
*CONN
*P hour_num[3] O
*I *175:HI O *D sky130_fd_sc_hd__conb_1
*CAP
1 hour_num[3] 0.000520796
2 *175:HI 0.000520796
3 hour_num[3] hour_num[4] 0
4 hour_num[2] hour_num[3] 0
*RES
1 *175:HI hour_num[3] 12.39 
*END

*D_NET *13 0.00109691
*CONN
*P hour_num[4] O
*I *184:X O *D sky130_fd_sc_hd__buf_2
*CAP
1 hour_num[4] 0.000548454
2 *184:X 0.000548454
3 hour_num[3] hour_num[4] 0
*RES
1 *184:X hour_num[4] 12.255 
*END

*D_NET *14 0.00110939
*CONN
*P month[0] I
*I *177:A I *D sky130_fd_sc_hd__buf_1
*CAP
1 month[0] 0.000496737
2 *177:A 0.000496737
3 *177:A *178:A 0
4 *177:A *32:12 5.33085e-05
5 *177:A *33:12 3.25676e-05
6 *177:A *35:16 3.00381e-05
*RES
1 month[0] *177:A 12.51 
*END

*D_NET *15 0.000979583
*CONN
*P month[1] I
*I *178:A I *D sky130_fd_sc_hd__clkbuf_1
*CAP
1 month[1] 0.000489791
2 *178:A 0.000489791
3 *178:A *179:A 0
4 *177:A *178:A 0
*RES
1 month[1] *178:A 12.06 
*END

*D_NET *16 0.000921352
*CONN
*P month[2] I
*I *179:A I *D sky130_fd_sc_hd__buf_1
*CAP
1 month[2] 0.000460676
2 *179:A 0.000460676
3 *179:A *180:A 0
4 *178:A *179:A 0
*RES
1 month[2] *179:A 11.715 
*END

*D_NET *17 0.00172063
*CONN
*P month[3] I
*I *180:A I *D sky130_fd_sc_hd__buf_1
*CAP
1 month[3] 0.000799982
2 *180:A 0.000799982
3 *180:A *33:12 4.99619e-05
4 *180:A *34:16 7.07032e-05
5 *179:A *180:A 0
*RES
1 month[3] *180:A 17.445 
*END

*D_NET *18 0.00096733
*CONN
*P year[0] I
*I *181:A I *D sky130_fd_sc_hd__clkbuf_1
*CAP
1 year[0] 0.000459519
2 *181:A 0.000459519
3 *181:A *182:A 0
4 *176:A *181:A 4.82919e-05
*RES
1 year[0] *181:A 11.82 
*END

*D_NET *19 0.000886588
*CONN
*P year[1] I
*I *182:A I *D sky130_fd_sc_hd__clkbuf_1
*CAP
1 year[1] 0.000443294
2 *182:A 0.000443294
3 *181:A *182:A 0
*RES
1 year[1] *182:A 11.37 
*END

*D_NET *25 0.000255867
*CONN
*I *166:A2 I *D sky130_fd_sc_hd__a211oi_1
*I *163:Y O *D sky130_fd_sc_hd__inv_2
*CAP
1 *166:A2 3.36956e-05
2 *163:Y 3.36956e-05
3 *166:A2 *163:A 8.57024e-05
4 *166:A2 *166:A1 8.65905e-05
5 *166:A2 *29:18 1.61831e-05
*RES
1 *163:Y *166:A2 4.34 
*END

*D_NET *26 0.00172699
*CONN
*I *168:A I *D sky130_fd_sc_hd__or3_1
*I *165:Y O *D sky130_fd_sc_hd__nor3_1
*CAP
1 *168:A 0.00069223
2 *165:Y 0.00069223
3 *168:A *39:8 0.000342524
*RES
1 *165:Y *168:A 16.53 
*END

*D_NET *27 0.000197062
*CONN
*I *168:B I *D sky130_fd_sc_hd__or3_1
*I *166:Y O *D sky130_fd_sc_hd__a211oi_1
*CAP
1 *168:B 5.43981e-05
2 *166:Y 5.43981e-05
3 *168:B *29:18 8.8266e-05
*RES
1 *166:Y *168:B 3.995 
*END

*D_NET *28 0.00107004
*CONN
*I *168:C I *D sky130_fd_sc_hd__or3_1
*I *167:X O *D sky130_fd_sc_hd__mux2_1
*CAP
1 *168:C 0.00030705
2 *167:X 0.00030705
3 *168:C *163:A 5.21714e-05
4 *168:C *166:B1 7.23533e-05
5 *168:C *166:C1 2.42236e-05
6 *168:C *29:18 0.000119631
7 *168:C *32:20 0.000122331
8 *168:C *35:18 6.52265e-05
*RES
1 *167:X *168:C 12.84 
*END

*D_NET *29 0.00574074
*CONN
*I *162:A I *D sky130_fd_sc_hd__inv_2
*I *169:A I *D sky130_fd_sc_hd__clkbuf_1
*I *176:X O *D sky130_fd_sc_hd__buf_1
*CAP
1 *162:A 0.000197121
2 *169:A 0
3 *176:X 0.00244495
4 *29:18 0.00264207
5 *162:A *183:A 9.36815e-05
6 *29:18 *163:A 6.97118e-05
7 *29:18 *166:A1 1.33293e-05
8 *29:18 *185:A 2.34313e-05
9 hour_num[2] *162:A 3.23663e-05
10 *166:A2 *29:18 1.61831e-05
11 *168:B *29:18 8.8266e-05
12 *168:C *29:18 0.000119631
*RES
1 *176:X *29:18 47.085 
2 *29:18 *169:A 1.6 
3 *29:18 *162:A 5.185 
*END

*D_NET *30 0.000238289
*CONN
*I *183:A I *D sky130_fd_sc_hd__buf_2
*I *169:X O *D sky130_fd_sc_hd__clkbuf_1
*CAP
1 *183:A 5.8542e-05
2 *169:X 5.8542e-05
3 hour_num[2] *183:A 2.75229e-05
4 *162:A *183:A 9.36815e-05
*RES
1 *169:X *183:A 4.61 
*END

*D_NET *31 0.000204841
*CONN
*I *184:A I *D sky130_fd_sc_hd__buf_2
*I *162:Y O *D sky130_fd_sc_hd__inv_2
*CAP
1 *184:A 0.00010242
2 *162:Y 0.00010242
*RES
1 *162:Y *184:A 4.685 
*END

*D_NET *32 0.00213989
*CONN
*I *167:S I *D sky130_fd_sc_hd__mux2_1
*I *164:A I *D sky130_fd_sc_hd__or4b_1
*I *163:A I *D sky130_fd_sc_hd__inv_2
*I *177:X O *D sky130_fd_sc_hd__buf_1
*CAP
1 *167:S 0
2 *164:A 6.43321e-05
3 *163:A 0.000102192
4 *177:X 4.89219e-05
5 *32:20 0.000284989
6 *32:12 0.000167387
7 *163:A *166:A1 0.000158297
8 *163:A *166:C1 0
9 *164:A *166:A1 4.9968e-05
10 *164:A *166:C1 7.18452e-06
11 *164:A *34:22 0.000100252
12 *164:A *35:18 0.000123225
13 *32:12 *33:12 4.66742e-05
14 *32:12 *34:16 7.30547e-05
15 *32:12 *35:16 6.29663e-05
16 *32:20 *167:A0 2.58557e-05
17 *32:20 *33:12 6.09021e-05
18 *32:20 *35:16 0.000144891
19 *32:20 *35:18 0.000235568
20 *166:A2 *163:A 8.57024e-05
21 *168:C *163:A 5.21714e-05
22 *168:C *32:20 0.000122331
23 *177:A *32:12 5.33085e-05
24 *29:18 *163:A 6.97118e-05
*RES
1 *177:X *32:12 7.265 
2 *32:12 *32:20 6.02 
3 *32:20 *163:A 6.63 
4 *32:20 *164:A 5.7 
5 *32:12 *167:S 1.6 
*END

*D_NET *33 0.00226646
*CONN
*I *164:D_N I *D sky130_fd_sc_hd__or4b_1
*I *166:A1 I *D sky130_fd_sc_hd__a211oi_1
*I *178:X O *D sky130_fd_sc_hd__clkbuf_1
*CAP
1 *164:D_N 0
2 *166:A1 0.000236958
3 *178:X 0.000339276
4 *33:12 0.000576235
5 *166:A1 *34:16 0
6 *33:12 *167:A0 5.15591e-05
7 *33:12 *34:16 0.00012182
8 *33:12 *34:22 0.000279787
9 *33:12 *35:16 5.12457e-05
10 *33:12 *35:18 0.000111285
11 *163:A *166:A1 0.000158297
12 *164:A *166:A1 4.9968e-05
13 *166:A2 *166:A1 8.65905e-05
14 *177:A *33:12 3.25676e-05
15 *180:A *33:12 4.99619e-05
16 *29:18 *166:A1 1.33293e-05
17 *32:12 *33:12 4.66742e-05
18 *32:20 *33:12 6.09021e-05
*RES
1 *178:X *33:12 9.085 
2 *33:12 *166:A1 9.65 
3 *33:12 *164:D_N 1.6 
*END

*D_NET *34 0.0030163
*CONN
*I *167:A1 I *D sky130_fd_sc_hd__mux2_1
*I *164:B I *D sky130_fd_sc_hd__or4b_1
*I *166:B1 I *D sky130_fd_sc_hd__a211oi_1
*I *179:X O *D sky130_fd_sc_hd__buf_1
*CAP
1 *167:A1 0
2 *164:B 0
3 *166:B1 2.54623e-05
4 *179:X 0.000514826
5 *34:22 0.000464479
6 *34:16 0.000953843
7 *166:B1 *166:C1 7.23533e-05
8 *34:16 *35:16 0.000203178
9 *34:22 *35:18 8.34281e-06
10 *34:22 *39:8 5.58436e-05
11 *164:A *34:22 0.000100252
12 *166:A1 *34:16 0
13 *168:C *166:B1 7.23533e-05
14 *180:A *34:16 7.07032e-05
15 *32:12 *34:16 7.30547e-05
16 *33:12 *34:16 0.00012182
17 *33:12 *34:22 0.000279787
*RES
1 *179:X *34:16 12.815 
2 *34:16 *34:22 6.42 
3 *34:22 *166:B1 6.47 
4 *34:22 *164:B 1.6 
5 *34:16 *167:A1 1.6 
*END

*D_NET *35 0.00223979
*CONN
*I *167:A0 I *D sky130_fd_sc_hd__mux2_1
*I *164:C I *D sky130_fd_sc_hd__or4b_1
*I *166:C1 I *D sky130_fd_sc_hd__a211oi_1
*I *180:X O *D sky130_fd_sc_hd__buf_1
*CAP
1 *167:A0 2.90814e-05
2 *164:C 0
3 *166:C1 0.000159413
4 *180:X 0.00024998
5 *35:18 0.000232262
6 *35:16 0.000351911
7 *163:A *166:C1 0
8 *164:A *166:C1 7.18452e-06
9 *164:A *35:18 0.000123225
10 *166:B1 *166:C1 7.23533e-05
11 *168:C *166:C1 2.42236e-05
12 *168:C *35:18 6.52265e-05
13 *177:A *35:16 3.00381e-05
14 *32:12 *35:16 6.29663e-05
15 *32:20 *167:A0 2.58557e-05
16 *32:20 *35:16 0.000144891
17 *32:20 *35:18 0.000235568
18 *33:12 *167:A0 5.15591e-05
19 *33:12 *35:16 5.12457e-05
20 *33:12 *35:18 0.000111285
21 *34:16 *35:16 0.000203178
22 *34:22 *35:18 8.34281e-06
*RES
1 *180:X *35:16 10.58 
2 *35:16 *35:18 3.21 
3 *35:18 *166:C1 8.39 
4 *35:18 *164:C 1.6 
5 *35:16 *167:A0 2.545 
*END

*D_NET *36 0.0011465
*CONN
*I *165:B I *D sky130_fd_sc_hd__nor3_1
*I *181:X O *D sky130_fd_sc_hd__clkbuf_1
*CAP
1 *165:B 0.000506251
2 *181:X 0.000506251
3 *165:B *165:A 8.40325e-05
4 *176:A *165:B 4.99619e-05
*RES
1 *181:X *165:B 9.44 
*END

*D_NET *37 0.000364892
*CONN
*I *165:A I *D sky130_fd_sc_hd__nor3_1
*I *182:X O *D sky130_fd_sc_hd__clkbuf_1
*CAP
1 *165:A 0.00014043
2 *182:X 0.00014043
3 *165:B *165:A 8.40325e-05
*RES
1 *182:X *165:A 5.735 
*END

*D_NET *38 0.00400478
*CONN
*I *185:A I *D sky130_fd_sc_hd__buf_2
*I *168:X O *D sky130_fd_sc_hd__or3_1
*CAP
1 *185:A 0.00173125
2 *168:X 0.00173125
3 *185:A *186:A 0.000431328
4 day_num[1] *185:A 3.45679e-05
5 day_num[3] *185:A 3.45679e-05
6 day_num[4] *185:A 1.83847e-05
7 *29:18 *185:A 2.34313e-05
*RES
1 *168:X *185:A 35.85 
*END

*D_NET *39 0.0044137
*CONN
*I *165:C I *D sky130_fd_sc_hd__nor3_1
*I *186:A I *D sky130_fd_sc_hd__buf_2
*I *164:X O *D sky130_fd_sc_hd__or4b_1
*CAP
1 *165:C 0
2 *186:A 0.00129123
3 *164:X 0.000487011
4 *39:8 0.00177824
5 day_num[2] *186:A 2.75229e-05
6 *168:A *39:8 0.000342524
7 *185:A *186:A 0.000431328
8 *34:22 *39:8 5.58436e-05
*RES
1 *164:X *39:8 11.29 
2 *39:8 *186:A 28.22 
3 *39:8 *165:C 1.6 
*END
