*SPEF "ieee 1481-1999"
*DESIGN "decode_input"
*DATE "19:23:16 Friday January 16, 2026"
*VENDOR "The OpenROAD Project"
*PROGRAM "OpenROAD"
*VERSION "edf00dff99f6c40d67a30c0e22a8191c5d2ed9d6"
*DESIGN_FLOW "NAME_SCOPE LOCAL" "PIN_CAP NONE"
*DIVIDER /
*DELIMITER :
*BUS_DELIMITER []
*T_UNIT 1 NS
*C_UNIT 1 PF
*R_UNIT 1 OHM
*L_UNIT 1 HENRY

*NAME_MAP
*3 button_dec
*4 button_inc
*5 dec[0]
*6 dec[1]
*7 dec[2]
*8 dec[3]
*9 dec[4]
*10 dec[5]
*11 done_dec[0]
*12 done_dec[1]
*13 done_dec[2]
*14 done_dec[3]
*15 done_dec[4]
*16 done_inc[0]
*17 done_inc[1]
*18 done_inc[2]
*19 done_inc[3]
*20 done_inc[4]
*21 en[0]
*22 en[1]
*23 en[2]
*24 en[3]
*25 en[4]
*26 en[5]
*27 inc[0]
*28 inc[1]
*29 inc[2]
*30 inc[3]
*31 inc[4]
*32 inc[5]
*33 mode[0]
*34 mode[1]
*35 select[0]
*36 select[1]
*37 select[2]
*38 select[3]
*39 select[4]
*40 select[5]
*41 _00_
*42 _01_
*43 _02_
*44 _03_
*45 _04_
*46 net1
*47 net10
*48 net11
*49 net12
*50 net13
*51 net14
*52 net15
*53 net16
*54 net17
*55 net18
*56 net19
*57 net2
*58 net20
*59 net21
*60 net22
*61 net23
*62 net24
*63 net25
*64 net26
*65 net27
*66 net28
*67 net29
*68 net3
*69 net30
*70 net31
*71 net32
*72 net33
*73 net34
*74 net35
*75 net36
*76 net37
*77 net38
*78 net39
*79 net4
*80 net40
*81 net5
*82 net6
*83 net7
*84 net8
*85 net9
*86 FILLER_0_11
*87 FILLER_0_17
*88 FILLER_0_21
*89 FILLER_0_27
*90 FILLER_0_32
*91 FILLER_0_41
*92 FILLER_0_47
*93 FILLER_0_51
*94 FILLER_0_55
*95 FILLER_0_57
*96 FILLER_0_6
*97 FILLER_0_61
*98 FILLER_0_67
*99 FILLER_0_71
*100 FILLER_1_15
*101 FILLER_1_27
*102 FILLER_1_3
*103 FILLER_1_39
*104 FILLER_1_51
*105 FILLER_1_55
*106 FILLER_1_57
*107 FILLER_1_69
*108 FILLER_2_15
*109 FILLER_2_27
*110 FILLER_2_29
*111 FILLER_2_3
*112 FILLER_2_41
*113 FILLER_2_53
*114 FILLER_2_65
*115 FILLER_2_77
*116 FILLER_3_15
*117 FILLER_3_27
*118 FILLER_3_3
*119 FILLER_3_39
*120 FILLER_3_51
*121 FILLER_3_55
*122 FILLER_3_57
*123 FILLER_3_69
*124 FILLER_4_15
*125 FILLER_4_27
*126 FILLER_4_29
*127 FILLER_4_3
*128 FILLER_4_41
*129 FILLER_4_53
*130 FILLER_4_65
*131 FILLER_4_77
*132 FILLER_5_15
*133 FILLER_5_27
*134 FILLER_5_3
*135 FILLER_5_39
*136 FILLER_5_51
*137 FILLER_5_55
*138 FILLER_5_57
*139 FILLER_5_63
*140 FILLER_5_69
*141 FILLER_6_15
*142 FILLER_6_27
*143 FILLER_6_29
*144 FILLER_6_3
*145 FILLER_6_42
*146 FILLER_6_48
*147 FILLER_6_56
*148 FILLER_6_80
*149 FILLER_7_18
*150 FILLER_7_33
*151 FILLER_7_42
*152 FILLER_7_48
*153 FILLER_7_55
*154 FILLER_7_57
*155 FILLER_7_6
*156 FILLER_7_73
*157 FILLER_7_78
*158 FILLER_8_3
*159 FILLER_8_35
*160 FILLER_9_3
*161 FILLER_9_41
*162 FILLER_9_80
*163 PHY_EDGE_ROW_0_Left_10
*164 PHY_EDGE_ROW_0_Right_0
*165 PHY_EDGE_ROW_1_Left_11
*166 PHY_EDGE_ROW_1_Right_1
*167 PHY_EDGE_ROW_2_Left_12
*168 PHY_EDGE_ROW_2_Right_2
*169 PHY_EDGE_ROW_3_Left_13
*170 PHY_EDGE_ROW_3_Right_3
*171 PHY_EDGE_ROW_4_Left_14
*172 PHY_EDGE_ROW_4_Right_4
*173 PHY_EDGE_ROW_5_Left_15
*174 PHY_EDGE_ROW_5_Right_5
*175 PHY_EDGE_ROW_6_Left_16
*176 PHY_EDGE_ROW_6_Right_6
*177 PHY_EDGE_ROW_7_Left_17
*178 PHY_EDGE_ROW_7_Right_7
*179 PHY_EDGE_ROW_8_Left_18
*180 PHY_EDGE_ROW_8_Right_8
*181 PHY_EDGE_ROW_9_Left_19
*182 PHY_EDGE_ROW_9_Right_9
*183 TAP_TAPCELL_ROW_0_20
*184 TAP_TAPCELL_ROW_0_21
*185 TAP_TAPCELL_ROW_1_22
*186 TAP_TAPCELL_ROW_2_23
*187 TAP_TAPCELL_ROW_3_24
*188 TAP_TAPCELL_ROW_4_25
*189 TAP_TAPCELL_ROW_5_26
*190 TAP_TAPCELL_ROW_6_27
*191 TAP_TAPCELL_ROW_7_28
*192 TAP_TAPCELL_ROW_8_29
*193 TAP_TAPCELL_ROW_9_30
*194 TAP_TAPCELL_ROW_9_31
*195 _05_
*196 _06_
*197 _07_
*198 _08_
*199 _09_
*200 _10_
*201 _11_
*202 _12_
*203 _13_
*204 _14_
*205 _15_
*206 _16_
*207 _17_
*208 _18_
*209 _19_
*210 _20_
*211 _21_
*212 _22_
*213 _23_
*214 _24_
*215 _25_
*216 _26_
*217 _27_
*218 fanout39
*219 fanout40
*220 input1
*221 input10
*222 input11
*223 input12
*224 input13
*225 input14
*226 input15
*227 input16
*228 input17
*229 input18
*230 input19
*231 input2
*232 input20
*233 input3
*234 input4
*235 input5
*236 input6
*237 input7
*238 input8
*239 input9
*240 output21
*241 output22
*242 output23
*243 output24
*244 output25
*245 output26
*246 output27
*247 output28
*248 output29
*249 output30
*250 output31
*251 output32
*252 output33
*253 output34
*254 output35
*255 output36
*256 output37
*257 output38

*PORTS
button_dec I
button_inc I
dec[0] O
dec[1] O
dec[2] O
dec[3] O
dec[4] O
dec[5] O
done_dec[0] I
done_dec[1] I
done_dec[2] I
done_dec[3] I
done_dec[4] I
done_inc[0] I
done_inc[1] I
done_inc[2] I
done_inc[3] I
done_inc[4] I
en[0] O
en[1] O
en[2] O
en[3] O
en[4] O
en[5] O
inc[0] O
inc[1] O
inc[2] O
inc[3] O
inc[4] O
inc[5] O
mode[0] I
mode[1] I
select[0] I
select[1] I
select[2] I
select[3] I
select[4] I
select[5] I

*D_NET *3 0.00135478
*CONN
*P button_dec I
*I *220:A I *D sky130_fd_sc_hd__buf_1
*CAP
1 button_dec 0.000632141
2 *220:A 0.000632141
3 *220:A *231:A 8.47274e-05
4 *220:A *46:16 5.7661e-06
*RES
1 button_dec *220:A 26.2643 
*END

*D_NET *4 0.00100193
*CONN
*P button_inc I
*I *231:A I *D sky130_fd_sc_hd__buf_1
*CAP
1 button_inc 0.000458601
2 *231:A 0.000458601
3 *231:A *232:A 0
4 *220:A *231:A 8.47274e-05
*RES
1 button_inc *231:A 22.9071 
*END

*D_NET *5 0.00255311
*CONN
*P dec[0] O
*I *240:X O *D sky130_fd_sc_hd__buf_2
*CAP
1 dec[0] 0.000704244
2 *240:X 0.000704244
3 dec[0] dec[1] 0
4 dec[0] inc[4] 3.97717e-05
5 dec[0] inc[5] 0.000586267
6 dec[0] *204:B 7.11083e-05
7 dec[0] *206:A3 2.78637e-05
8 dec[0] *208:A3 2.28428e-05
9 dec[0] *240:A 0.00021318
10 dec[0] *44:43 5.41797e-05
11 dec[0] *78:31 2.61337e-05
12 dec[0] *78:66 0.000103275
*RES
1 *240:X dec[0] 29.5143 
*END

*D_NET *6 0.00262988
*CONN
*P dec[1] O
*I *241:X O *D sky130_fd_sc_hd__buf_2
*CAP
1 dec[1] 0.000807126
2 *241:X 0.000807126
3 dec[1] dec[2] 0.000211719
4 dec[1] *208:A1 1.98839e-05
5 dec[1] *208:A3 6.8646e-06
6 dec[1] *244:A 0.000476709
7 dec[1] *245:A 9.25014e-06
8 dec[1] *80:53 2.39876e-05
9 dec[1] *80:66 2.84398e-05
10 dec[1] *81:22 0.000238769
11 dec[0] dec[1] 0
*RES
1 *241:X dec[1] 29.425 
*END

*D_NET *7 0.00233396
*CONN
*P dec[2] O
*I *242:X O *D sky130_fd_sc_hd__buf_2
*CAP
1 dec[2] 0.000511461
2 *242:X 0.000511461
3 dec[2] dec[3] 0.000214546
4 dec[2] en[0] 0.000108529
5 dec[2] en[1] 0.000110835
6 dec[2] *68:14 9.46929e-05
7 dec[2] *77:18 0.000566251
8 dec[2] *81:22 4.46186e-06
9 dec[1] dec[2] 0.000211719
*RES
1 *242:X dec[2] 38.6571 
*END

*D_NET *8 0.00251658
*CONN
*P dec[3] O
*I *243:X O *D sky130_fd_sc_hd__buf_2
*CAP
1 dec[3] 0.000651384
2 *243:X 0.000651384
3 dec[3] dec[4] 0.000274055
4 dec[3] dec[5] 5.71472e-05
5 dec[3] *208:A2 0.000283698
6 dec[3] *209:A3 0.000317531
7 dec[3] *243:A 5.76121e-05
8 dec[3] *245:A 9.22103e-06
9 dec[3] *81:22 0
10 dec[2] dec[3] 0.000214546
*RES
1 *243:X dec[3] 29.925 
*END

*D_NET *9 0.00209003
*CONN
*P dec[4] O
*I *244:X O *D sky130_fd_sc_hd__buf_2
*CAP
1 dec[4] 0.000735915
2 *244:X 0.000735915
3 dec[4] dec[5] 0
4 dec[4] *209:A3 0.000168939
5 dec[4] *242:A 7.84241e-05
6 dec[4] *244:A 9.07283e-05
7 dec[4] *257:A 6.05161e-06
8 dec[3] dec[4] 0.000274055
*RES
1 *244:X dec[4] 27.4964 
*END

*D_NET *10 0.0020811
*CONN
*P dec[5] O
*I *245:X O *D sky130_fd_sc_hd__buf_2
*CAP
1 dec[5] 0.000638372
2 *245:X 0.000638372
3 dec[5] en[0] 0.000530251
4 dec[5] en[1] 0
5 dec[5] *209:A3 0
6 dec[5] *241:A 7.40992e-05
7 dec[5] *245:A 0.000142856
8 dec[3] dec[5] 5.71472e-05
9 dec[4] dec[5] 0
*RES
1 *245:X dec[5] 29.1036 
*END

*D_NET *11 0.00184446
*CONN
*P done_dec[0] I
*I *233:A I *D sky130_fd_sc_hd__clkbuf_1
*CAP
1 done_dec[0] 0.000477521
2 *233:A 0.000477521
3 *233:A *212:A1 0.000300406
4 *233:A *223:A 0.000431048
5 *233:A *234:A 0
6 *233:A *237:A 2.89114e-05
7 *233:A *81:22 0.000129056
*RES
1 done_dec[0] *233:A 26.5857 
*END

*D_NET *12 0.00180322
*CONN
*P done_dec[1] I
*I *234:A I *D sky130_fd_sc_hd__clkbuf_1
*CAP
1 done_dec[1] 0.000531235
2 *234:A 0.000531235
3 *234:A *212:B1 5.7616e-05
4 *234:A *213:A1 7.32955e-05
5 *234:A *214:A1 0.000102197
6 *234:A *222:A 0
7 *234:A *235:A 0.000325137
8 *234:A *236:A 5.71472e-05
9 *234:A *81:22 0
10 *234:A *84:28 0.000125352
11 *233:A *234:A 0
*RES
1 done_dec[1] *234:A 27.675 
*END

*D_NET *13 0.00225354
*CONN
*P done_dec[2] I
*I *235:A I *D sky130_fd_sc_hd__clkbuf_1
*CAP
1 done_dec[2] 0.000681223
2 *235:A 0.000681223
3 *235:A *222:A 0.000123288
4 *235:A *236:A 0
5 *235:A *68:14 0.000149785
6 *235:A *81:22 0.000259445
7 *235:A *84:28 3.34366e-05
8 *234:A *235:A 0.000325137
*RES
1 done_dec[2] *235:A 36.8179 
*END

*D_NET *14 0.00232955
*CONN
*P done_dec[3] I
*I *236:A I *D sky130_fd_sc_hd__clkbuf_1
*CAP
1 done_dec[3] 0.000607823
2 *236:A 0.000607823
3 *236:A *206:A3 0.000181803
4 *236:A *213:A1 0.000152637
5 *236:A *214:A1 0.000156042
6 *236:A *214:B1 5.58941e-05
7 *236:A *237:A 0.000375825
8 *236:A *252:A 5.52302e-05
9 *236:A *42:21 0
10 *236:A *42:42 5.41797e-05
11 *236:A *84:28 7.79781e-06
12 *236:A *85:20 1.73501e-05
13 *234:A *236:A 5.71472e-05
14 *235:A *236:A 0
*RES
1 done_dec[3] *236:A 29.2821 
*END

*D_NET *15 0.00267075
*CONN
*P done_dec[4] I
*I *237:A I *D sky130_fd_sc_hd__clkbuf_1
*CAP
1 done_dec[4] 0.000578711
2 *237:A 0.000578711
3 *237:A inc[0] 0.000225449
4 *237:A *205:A3 0.000505405
5 *237:A *212:A1 3.61629e-06
6 *237:A *212:A2 3.99614e-06
7 *237:A *214:B1 5.58941e-05
8 *237:A *42:21 2.84494e-05
9 *237:A *42:34 5.51406e-05
10 *237:A *77:18 0.00022459
11 *237:A *81:22 6.05161e-06
12 *233:A *237:A 2.89114e-05
13 *236:A *237:A 0.000375825
*RES
1 done_dec[4] *237:A 31.3714 
*END

*D_NET *16 0.00157818
*CONN
*P done_inc[0] I
*I *238:A I *D sky130_fd_sc_hd__clkbuf_1
*CAP
1 done_inc[0] 0.000605158
2 *238:A 0.000605158
3 *238:A *239:A 0.000367867
4 *238:A *85:20 0
*RES
1 done_inc[0] *238:A 28.4429 
*END

*D_NET *17 0.00134533
*CONN
*P done_inc[1] I
*I *239:A I *D sky130_fd_sc_hd__clkbuf_1
*CAP
1 done_inc[1] 0.000306378
2 *239:A 0.000306378
3 *239:A *221:A 0.000364704
4 *238:A *239:A 0.000367867
*RES
1 done_inc[1] *239:A 25.7821 
*END

*D_NET *18 0.00147523
*CONN
*P done_inc[2] I
*I *221:A I *D sky130_fd_sc_hd__clkbuf_1
*CAP
1 done_inc[2] 0.000289457
2 *221:A 0.000289457
3 *221:A *222:A 0.000259658
4 *221:A *68:14 0.000271951
5 *239:A *221:A 0.000364704
*RES
1 done_inc[2] *221:A 25.7821 
*END

*D_NET *19 0.00180427
*CONN
*P done_inc[3] I
*I *222:A I *D sky130_fd_sc_hd__clkbuf_1
*CAP
1 done_inc[3] 0.000293336
2 *222:A 0.000293336
3 *222:A *223:A 0.000728349
4 *222:A *68:14 7.90538e-05
5 *222:A *81:22 2.72449e-05
6 *222:A *84:28 0
7 *221:A *222:A 0.000259658
8 *234:A *222:A 0
9 *235:A *222:A 0.000123288
*RES
1 done_inc[3] *222:A 25.7821 
*END

*D_NET *20 0.00214919
*CONN
*P done_inc[4] I
*I *223:A I *D sky130_fd_sc_hd__clkbuf_1
*CAP
1 done_inc[4] 0.000397131
2 *223:A 0.000397131
3 *223:A *212:A1 1.74352e-05
4 *223:A *81:22 0.000178096
5 *222:A *223:A 0.000728349
6 *233:A *223:A 0.000431048
*RES
1 done_inc[4] *223:A 27.1929 
*END

*D_NET *21 0.00198357
*CONN
*P en[0] O
*I *246:X O *D sky130_fd_sc_hd__buf_2
*CAP
1 en[0] 0.000621126
2 *246:X 0.000621126
3 en[0] en[1] 4.53889e-05
4 en[0] *245:A 5.71472e-05
5 dec[2] en[0] 0.000108529
6 dec[5] en[0] 0.000530251
*RES
1 *246:X en[0] 28.9071 
*END

*D_NET *22 0.00217059
*CONN
*P en[1] O
*I *247:X O *D sky130_fd_sc_hd__buf_2
*CAP
1 en[1] 0.000778328
2 *247:X 0.000778328
3 en[1] en[2] 0.000300692
4 en[1] *246:A 5.83304e-05
5 en[1] *247:A 2.59355e-05
6 en[1] *77:18 7.2754e-05
7 dec[2] en[1] 0.000110835
8 dec[5] en[1] 0
9 en[0] en[1] 4.53889e-05
*RES
1 *247:X en[1] 29.8 
*END

*D_NET *23 0.00204861
*CONN
*P en[2] O
*I *248:X O *D sky130_fd_sc_hd__buf_2
*CAP
1 en[2] 0.000404428
2 *248:X 0.000404428
3 en[2] en[3] 0.000466752
4 en[2] en[4] 5.52238e-05
5 en[2] inc[5] 7.83587e-05
6 en[2] *246:A 6.65302e-05
7 en[2] *247:A 0.000125724
8 en[2] *77:18 0.000146474
9 en[1] en[2] 0.000300692
*RES
1 *248:X en[2] 28.2464 
*END

*D_NET *24 0.00307959
*CONN
*P en[3] O
*I *249:X O *D sky130_fd_sc_hd__buf_2
*CAP
1 en[3] 0.000508397
2 *249:X 0.000508397
3 en[3] en[4] 0.00106959
4 en[3] en[5] 3.69865e-05
5 en[3] inc[5] 7.6644e-05
6 en[3] *247:A 0.000335922
7 en[3] *248:A 5.12344e-05
8 en[3] *249:A 2.56694e-05
9 en[2] en[3] 0.000466752
*RES
1 *249:X en[3] 32.6929 
*END

*D_NET *25 0.00329851
*CONN
*P en[4] O
*I *250:X O *D sky130_fd_sc_hd__buf_2
*CAP
1 en[4] 0.000653096
2 *250:X 0.000653096
3 en[4] en[5] 0.000642186
4 en[4] *203:B 6.65725e-05
5 en[4] *246:A 1.39726e-05
6 en[4] *251:A 0.000144773
7 en[2] en[4] 5.52238e-05
8 en[3] en[4] 0.00106959
*RES
1 *250:X en[4] 33.6214 
*END

*D_NET *26 0.00354626
*CONN
*P en[5] O
*I *251:X O *D sky130_fd_sc_hd__buf_2
*CAP
1 en[5] 0.00120172
2 *251:X 0.00120172
3 en[5] *246:A 0.000396898
4 en[5] *251:A 1.15172e-05
5 en[5] *46:16 5.52238e-05
6 en[3] en[5] 3.69865e-05
7 en[4] en[5] 0.000642186
*RES
1 *251:X en[5] 37.1571 
*END

*D_NET *27 0.0021087
*CONN
*P inc[0] O
*I *252:X O *D sky130_fd_sc_hd__buf_2
*CAP
1 inc[0] 0.000595407
2 *252:X 0.000595407
3 inc[0] inc[1] 0
4 inc[0] *213:A1 0.0001399
5 inc[0] *42:10 5.41794e-05
6 inc[0] *42:21 0.000216297
7 inc[0] *42:34 0.000121573
8 inc[0] *45:10 2.61337e-05
9 inc[0] *45:23 0.000104067
10 inc[0] *84:28 3.0285e-05
11 *237:A inc[0] 0.000225449
*RES
1 *252:X inc[0] 28.1571 
*END

*D_NET *28 0.00219317
*CONN
*P inc[1] O
*I *253:X O *D sky130_fd_sc_hd__buf_2
*CAP
1 inc[1] 0.000732296
2 *253:X 0.000732296
3 inc[1] inc[2] 2.69104e-05
4 inc[1] *256:A 0.000131958
5 inc[1] *45:10 6.5185e-05
6 inc[1] *45:23 0.000163968
7 inc[1] *77:18 0.000212672
8 inc[1] *79:32 2.96677e-05
9 inc[1] *84:28 9.8219e-05
10 inc[0] inc[1] 0
*RES
1 *253:X inc[1] 29.5679 
*END

*D_NET *29 0.00303059
*CONN
*P inc[2] O
*I *254:X O *D sky130_fd_sc_hd__buf_2
*CAP
1 inc[2] 0.000953689
2 *254:X 0.000953689
3 inc[2] inc[3] 0.000732891
4 inc[2] *210:B1 2.90035e-05
5 inc[2] *253:A 0.00011463
6 inc[2] *256:A 0.000219782
7 inc[2] *77:18 0
8 inc[1] inc[2] 2.69104e-05
*RES
1 *254:X inc[2] 34.8682 
*END

*D_NET *30 0.00221598
*CONN
*P inc[3] O
*I *255:X O *D sky130_fd_sc_hd__buf_2
*CAP
1 inc[3] 0.000463307
2 *255:X 0.000463307
3 inc[3] inc[4] 0
4 inc[3] *216:A2 0.000123288
5 inc[3] *253:A 0.000192983
6 inc[3] *254:A 4.48271e-05
7 inc[3] *255:A 0.000195379
8 inc[3] *77:18 0
9 inc[2] inc[3] 0.000732891
*RES
1 *255:X inc[3] 26.925 
*END

*D_NET *31 0.0021591
*CONN
*P inc[4] O
*I *256:X O *D sky130_fd_sc_hd__buf_2
*CAP
1 inc[4] 0.000618943
2 *256:X 0.000618943
3 inc[4] inc[5] 0.000327443
4 inc[4] *204:A_N 0.000191969
5 inc[4] *210:A1 5.49489e-05
6 inc[4] *216:A2 0
7 inc[4] *254:A 0
8 inc[4] *78:31 0.000121254
9 inc[4] *78:66 0.00018583
10 dec[0] inc[4] 3.97717e-05
11 inc[3] inc[4] 0
*RES
1 *256:X inc[4] 28.2464 
*END

*D_NET *32 0.00456446
*CONN
*P inc[5] O
*I *257:X O *D sky130_fd_sc_hd__buf_2
*CAP
1 inc[5] 0.00116266
2 *257:X 0.00116266
3 inc[5] *257:A 7.43578e-06
4 inc[5] *77:18 0.00116299
5 dec[0] inc[5] 0.000586267
6 en[2] inc[5] 7.83587e-05
7 en[3] inc[5] 7.6644e-05
8 inc[4] inc[5] 0.000327443
*RES
1 *257:X inc[5] 44.55 
*END

*D_NET *33 0.00104803
*CONN
*P mode[0] I
*I *224:A I *D sky130_fd_sc_hd__buf_1
*CAP
1 mode[0] 0.000524013
2 *224:A 0.000524013
3 *224:A *225:A 0
*RES
1 mode[0] *224:A 23.8893 
*END

*D_NET *34 0.00083351
*CONN
*P mode[1] I
*I *225:A I *D sky130_fd_sc_hd__buf_1
*CAP
1 mode[1] 0.00040711
2 *225:A 0.00040711
3 *225:A *226:A 0
4 *225:A *50:14 1.92905e-05
5 *224:A *225:A 0
*RES
1 mode[1] *225:A 21.8357 
*END

*D_NET *35 0.000861374
*CONN
*P select[0] I
*I *226:A I *D sky130_fd_sc_hd__clkbuf_1
*CAP
1 select[0] 0.000396717
2 *226:A 0.000396717
3 *226:A *227:A 0
4 *226:A *50:14 1.92905e-05
5 *226:A *51:10 4.86495e-05
6 *225:A *226:A 0
*RES
1 select[0] *226:A 21.8357 
*END

*D_NET *36 0.000900055
*CONN
*P select[1] I
*I *227:A I *D sky130_fd_sc_hd__clkbuf_1
*CAP
1 select[1] 0.000431665
2 *227:A 0.000431665
3 *227:A *228:A 0
4 *227:A *51:10 0
5 *227:A *52:20 3.67257e-05
6 *226:A *227:A 0
*RES
1 select[1] *227:A 22.2464 
*END

*D_NET *37 0.000876434
*CONN
*P select[2] I
*I *228:A I *D sky130_fd_sc_hd__clkbuf_1
*CAP
1 select[2] 0.000410602
2 *228:A 0.000410602
3 *228:A *229:A 0
4 *228:A *53:20 5.52302e-05
5 *227:A *228:A 0
*RES
1 select[2] *228:A 21.8357 
*END

*D_NET *38 0.000892227
*CONN
*P select[3] I
*I *229:A I *D sky130_fd_sc_hd__clkbuf_1
*CAP
1 select[3] 0.000418498
2 *229:A 0.000418498
3 *229:A *230:A 0
4 *229:A *53:20 5.52302e-05
5 *228:A *229:A 0
*RES
1 select[3] *229:A 21.8357 
*END

*D_NET *39 0.00091462
*CONN
*P select[4] I
*I *230:A I *D sky130_fd_sc_hd__clkbuf_1
*CAP
1 select[4] 0.00040208
2 *230:A 0.00040208
3 *230:A *232:A 0
4 *230:A *53:20 5.52302e-05
5 *230:A *55:20 5.52302e-05
6 *229:A *230:A 0
*RES
1 select[4] *230:A 21.8357 
*END

*D_NET *40 0.0008941
*CONN
*P select[5] I
*I *232:A I *D sky130_fd_sc_hd__clkbuf_1
*CAP
1 select[5] 0.000403566
2 *232:A 0.000403566
3 *232:A *46:16 5.52302e-05
4 *232:A *53:20 2.8266e-06
5 *232:A *55:20 2.89114e-05
6 *230:A *232:A 0
7 *231:A *232:A 0
*RES
1 select[5] *232:A 21.8357 
*END

*D_NET *41 0.00159225
*CONN
*I *217:A2 I *D sky130_fd_sc_hd__a21oi_1
*I *195:Y O *D sky130_fd_sc_hd__inv_2
*CAP
1 *217:A2 0.000515824
2 *195:Y 0.000515824
3 *217:A2 *211:A_N 3.7072e-05
4 *217:A2 *211:C 0
5 *217:A2 *217:A1 4.48206e-05
6 *217:A2 *42:10 0.000338158
7 *217:A2 *50:14 1.74352e-05
8 *217:A2 *78:27 6.8377e-06
9 *217:A2 *79:32 6.04815e-05
10 *217:A2 *80:47 5.57989e-05
*RES
1 *195:Y *217:A2 36.3679 
*END

*D_NET *42 0.00558013
*CONN
*I *216:A2 I *D sky130_fd_sc_hd__a21o_1
*I *214:A2 I *D sky130_fd_sc_hd__a21o_1
*I *212:A2 I *D sky130_fd_sc_hd__a21o_1
*I *215:A2 I *D sky130_fd_sc_hd__a21o_1
*I *213:A2 I *D sky130_fd_sc_hd__a21o_1
*I *196:Y O *D sky130_fd_sc_hd__nor2_1
*CAP
1 *216:A2 0.000444506
2 *214:A2 0
3 *212:A2 0.000125337
4 *215:A2 1.69531e-05
5 *213:A2 1.69531e-05
6 *196:Y 0.00030489
7 *42:42 0.000376772
8 *42:34 0.00075392
9 *42:21 0.000193673
10 *42:10 0.000440584
11 *212:A2 *205:A3 0.000187701
12 *212:A2 *212:A1 5.71472e-05
13 *212:A2 *212:B1 6.71327e-05
14 *212:A2 *85:20 5.33005e-05
15 *213:A2 *206:A3 5.33005e-05
16 *213:A2 *213:A1 5.33005e-05
17 *215:A2 *205:A3 5.33005e-05
18 *215:A2 *85:20 5.33005e-05
19 *216:A2 *254:A 3.27461e-05
20 *216:A2 *77:18 0.000266473
21 *216:A2 *81:22 3.37161e-05
22 *216:A2 *84:28 0.000181796
23 *42:10 *210:A1 0
24 *42:10 *211:B 6.42338e-05
25 *42:10 *211:C 3.95139e-05
26 *42:10 *217:A1 0
27 *42:10 *45:10 1.87004e-05
28 *42:10 *50:14 0.00018372
29 *42:10 *78:10 0
30 *42:10 *78:18 9.46571e-05
31 *42:10 *78:27 3.08664e-05
32 *42:21 *85:20 0
33 *42:42 *214:A1 9.25014e-06
34 *42:42 *84:28 0.000345411
35 *42:42 *85:20 3.17148e-05
36 inc[0] *42:10 5.41794e-05
37 inc[0] *42:21 0.000216297
38 inc[0] *42:34 0.000121573
39 inc[3] *216:A2 0.000123288
40 inc[4] *216:A2 0
41 *217:A2 *42:10 0.000338158
42 *236:A *42:21 0
43 *236:A *42:42 5.41797e-05
44 *237:A *212:A2 3.99614e-06
45 *237:A *42:21 2.84494e-05
46 *237:A *42:34 5.51406e-05
*RES
1 *196:Y *42:10 22.3 
2 *42:10 *213:A2 14.3357 
3 *42:10 *42:21 2.85714 
4 *42:21 *215:A2 14.3357 
5 *42:21 *42:34 6.14286 
6 *42:34 *42:42 13.2321 
7 *42:42 *212:A2 12.8714 
8 *42:42 *214:A2 9.3 
9 *42:34 *216:A2 24.9964 
*END

*D_NET *43 0.00322371
*CONN
*I *199:B I *D sky130_fd_sc_hd__or2_1
*I *201:B I *D sky130_fd_sc_hd__or2_1
*I *202:B I *D sky130_fd_sc_hd__or2_1
*I *203:B I *D sky130_fd_sc_hd__or2_1
*I *200:B I *D sky130_fd_sc_hd__or2_1
*I *198:B I *D sky130_fd_sc_hd__or2_1
*I *197:Y O *D sky130_fd_sc_hd__xnor2_1
*CAP
1 *199:B 0
2 *201:B 2.36623e-05
3 *202:B 0
4 *203:B 0.000205467
5 *200:B 0.00012627
6 *198:B 0
7 *197:Y 0.000169459
8 *43:47 0.000364629
9 *43:17 0.000331737
10 *43:15 0.000462176
11 *43:8 0.000290668
12 *200:B *203:A 0
13 *200:B *53:20 0.000126446
14 *201:B *55:20 5.52302e-05
15 *203:B *203:A 0
16 *203:B *246:A 0.000437939
17 *203:B *250:A 6.09476e-05
18 *203:B *251:A 7.3237e-05
19 *203:B *46:16 1.50181e-05
20 *203:B *53:20 2.24646e-05
21 *43:8 *198:A 0.000122159
22 *43:15 *198:A 9.90367e-05
23 *43:15 *53:20 5.33005e-05
24 *43:47 *247:A 4.13001e-05
25 *43:47 *250:A 8.81471e-06
26 *43:47 *53:20 4.72917e-05
27 *43:47 *55:20 1.98839e-05
28 en[4] *203:B 6.65725e-05
*RES
1 *197:Y *43:8 11.9071 
2 *43:8 *198:B 9.3 
3 *43:8 *43:15 2.17857 
4 *43:15 *43:17 4.5 
5 *43:17 *200:B 15.9786 
6 *43:17 *203:B 20.0857 
7 *43:15 *43:47 4.67857 
8 *43:47 *202:B 9.3 
9 *43:47 *201:B 9.83571 
10 *43:15 *199:B 9.3 
*END

*D_NET *44 0.00214792
*CONN
*I *206:B1 I *D sky130_fd_sc_hd__a31o_1
*I *205:B1 I *D sky130_fd_sc_hd__a31o_1
*I *209:B1 I *D sky130_fd_sc_hd__a31o_1
*I *208:B1 I *D sky130_fd_sc_hd__a31o_1
*I *207:B1 I *D sky130_fd_sc_hd__a31o_1
*I *204:X O *D sky130_fd_sc_hd__and3b_1
*CAP
1 *206:B1 0
2 *205:B1 2.94296e-05
3 *209:B1 1.35541e-05
4 *208:B1 0.000100416
5 *207:B1 0
6 *204:X 0
7 *44:43 9.38777e-05
8 *44:19 0.000195685
9 *44:8 0.000177216
10 *44:4 0.00015995
11 *205:B1 *206:A3 0.000139907
12 *205:B1 *78:75 0.000139907
13 *208:B1 *208:A2 0.00021559
14 *208:B1 *81:22 7.2279e-05
15 *209:B1 *209:A1 4.18895e-05
16 *209:B1 *243:A 5.33005e-05
17 *44:8 *78:35 1.24368e-05
18 *44:8 *78:46 9.41642e-05
19 *44:19 *209:A1 0.000164758
20 *44:19 *243:A 5.52238e-05
21 *44:19 *245:A 0.000158826
22 *44:19 *78:46 4.27935e-05
23 *44:43 *204:B 9.25014e-06
24 *44:43 *208:A3 0.000123288
25 dec[0] *44:43 5.41797e-05
*RES
1 *204:X *44:4 9.3 
2 *44:4 *44:8 1.67857 
3 *44:8 *207:B1 9.3 
4 *44:8 *44:19 3.14286 
5 *44:19 *208:B1 21.1571 
6 *44:19 *209:B1 9.83571 
7 *44:4 *44:43 10.6429 
8 *44:43 *205:B1 10.6571 
9 *44:43 *206:B1 9.3 
*END

*D_NET *45 0.00318573
*CONN
*I *216:B1 I *D sky130_fd_sc_hd__a21o_1
*I *215:B1 I *D sky130_fd_sc_hd__a21o_1
*I *214:B1 I *D sky130_fd_sc_hd__a21o_1
*I *212:B1 I *D sky130_fd_sc_hd__a21o_1
*I *213:B1 I *D sky130_fd_sc_hd__a21o_1
*I *211:X O *D sky130_fd_sc_hd__and3b_1
*CAP
1 *216:B1 4.82991e-05
2 *215:B1 0
3 *214:B1 1.92398e-05
4 *212:B1 0.000220352
5 *213:B1 2.55173e-05
6 *211:X 9.89299e-05
7 *45:53 6.73804e-05
8 *45:27 0.00047301
9 *45:23 0.000356067
10 *45:10 0.000228015
11 *212:B1 *84:28 5.58941e-05
12 *212:B1 *85:20 0.000178847
13 *213:B1 *206:A3 5.49544e-05
14 *216:B1 *205:A3 0.000211904
15 *216:B1 *216:A1 4.22349e-05
16 *216:B1 *254:A 0.000141734
17 *45:10 *211:C 1.02504e-05
18 *45:10 *79:32 5.68713e-05
19 *45:27 *205:A3 1.02821e-05
20 *45:27 *85:20 0.000209204
21 *45:53 *205:A3 5.49544e-05
22 *45:53 *216:A1 7.20217e-06
23 inc[0] *45:10 2.61337e-05
24 inc[0] *45:23 0.000104067
25 inc[1] *45:10 6.5185e-05
26 inc[1] *45:23 0.000163968
27 *212:A2 *212:B1 6.71327e-05
28 *234:A *212:B1 5.7616e-05
29 *236:A *214:B1 5.58941e-05
30 *237:A *214:B1 5.58941e-05
31 *42:10 *45:10 1.87004e-05
*RES
1 *211:X *45:10 15.9786 
2 *45:10 *213:B1 14.3357 
3 *45:10 *45:23 7.35714 
4 *45:23 *45:27 3.32143 
5 *45:27 *212:B1 21.6214 
6 *45:27 *214:B1 19.0321 
7 *45:23 *45:53 0.535714 
8 *45:53 *215:B1 9.3 
9 *45:53 *216:B1 11.4786 
*END

*D_NET *46 0.00490845
*CONN
*I *210:A2 I *D sky130_fd_sc_hd__o21a_1
*I *204:B I *D sky130_fd_sc_hd__and3b_1
*I *220:X O *D sky130_fd_sc_hd__buf_1
*CAP
1 *210:A2 0
2 *204:B 0.00029988
3 *220:X 0.00110419
4 *46:16 0.00140407
5 *204:B *208:A3 0.000267331
6 *204:B *210:A1 2.77258e-05
7 *204:B *210:B1 4.50291e-05
8 *204:B *240:A 0.000100823
9 *204:B *78:31 0
10 *204:B *78:35 1.92905e-05
11 *204:B *79:32 5.52238e-05
12 *46:16 *202:A 0.000446603
13 *46:16 *210:A1 2.27416e-05
14 *46:16 *246:A 6.42145e-05
15 *46:16 *53:20 0.000710853
16 *46:16 *55:20 0.000128866
17 *46:16 *80:51 0
18 dec[0] *204:B 7.11083e-05
19 en[5] *46:16 5.52238e-05
20 *203:B *46:16 1.50181e-05
21 *220:A *46:16 5.7661e-06
22 *232:A *46:16 5.52302e-05
23 *44:43 *204:B 9.25014e-06
*RES
1 *220:X *46:16 44.5321 
2 *46:16 *204:B 24.6214 
3 *46:16 *210:A2 9.3 
*END

*D_NET *47 0.00149962
*CONN
*I *214:A1 I *D sky130_fd_sc_hd__a21o_1
*I *221:X O *D sky130_fd_sc_hd__clkbuf_1
*CAP
1 *214:A1 0.000485583
2 *221:X 0.000485583
3 *214:A1 *206:A3 0.000182694
4 *214:A1 *213:A1 1.32552e-05
5 *214:A1 *85:20 6.50156e-05
6 *234:A *214:A1 0.000102197
7 *236:A *214:A1 0.000156042
8 *42:42 *214:A1 9.25014e-06
*RES
1 *221:X *214:A1 35.0107 
*END

*D_NET *48 0.00138823
*CONN
*I *213:A1 I *D sky130_fd_sc_hd__a21o_1
*I *222:X O *D sky130_fd_sc_hd__clkbuf_1
*CAP
1 *213:A1 0.000345966
2 *222:X 0.000345966
3 *213:A1 *206:A3 0.00011157
4 *213:A1 *252:A 9.90431e-05
5 *213:A1 *78:10 5.33005e-05
6 inc[0] *213:A1 0.0001399
7 *213:A2 *213:A1 5.33005e-05
8 *214:A1 *213:A1 1.32552e-05
9 *234:A *213:A1 7.32955e-05
10 *236:A *213:A1 0.000152637
*RES
1 *222:X *213:A1 26.1357 
*END

*D_NET *49 0.00110681
*CONN
*I *212:A1 I *D sky130_fd_sc_hd__a21o_1
*I *223:X O *D sky130_fd_sc_hd__clkbuf_1
*CAP
1 *212:A1 0.000355387
2 *223:X 0.000355387
3 *212:A1 *205:A3 1.74352e-05
4 *212:A2 *212:A1 5.71472e-05
5 *223:A *212:A1 1.74352e-05
6 *233:A *212:A1 0.000300406
7 *237:A *212:A1 3.61629e-06
*RES
1 *223:X *212:A1 23.2429 
*END

*D_NET *50 0.0065482
*CONN
*I *219:A I *D sky130_fd_sc_hd__buf_2
*I *210:A1 I *D sky130_fd_sc_hd__o21a_1
*I *224:X O *D sky130_fd_sc_hd__buf_1
*CAP
1 *219:A 0
2 *210:A1 0.000517791
3 *224:X 0.00120447
4 *50:14 0.00172226
5 *210:A1 *210:B1 9.41642e-05
6 *210:A1 *211:B 7.50697e-05
7 *210:A1 *211:C 0.000576776
8 *210:A1 *254:A 0.000100684
9 *210:A1 *256:A 0.000168284
10 *210:A1 *79:32 0.0002052
11 *50:14 *51:10 0.00113878
12 *50:14 *78:18 0.000399565
13 inc[4] *210:A1 5.49489e-05
14 *204:B *210:A1 2.77258e-05
15 *217:A2 *50:14 1.74352e-05
16 *225:A *50:14 1.92905e-05
17 *226:A *50:14 1.92905e-05
18 *42:10 *210:A1 0
19 *42:10 *50:14 0.00018372
20 *46:16 *210:A1 2.27416e-05
*RES
1 *224:X *50:14 43.425 
2 *50:14 *210:A1 31.3 
3 *50:14 *219:A 9.3 
*END

*D_NET *51 0.00669547
*CONN
*I *218:A I *D sky130_fd_sc_hd__buf_2
*I *210:B1 I *D sky130_fd_sc_hd__o21a_1
*I *225:X O *D sky130_fd_sc_hd__buf_1
*CAP
1 *218:A 6.20332e-05
2 *210:B1 0.00134027
3 *225:X 0.00102248
4 *51:10 0.00242478
5 *210:B1 *78:31 5.7836e-06
6 *210:B1 *79:32 1.74352e-05
7 *218:A *252:A 1.39148e-05
8 *218:A *84:28 0.000148456
9 *218:A *85:20 0.000125731
10 *51:10 *217:A1 0
11 *51:10 *252:A 3.69406e-05
12 *51:10 *52:20 9.33978e-07
13 *51:10 *78:18 7.08001e-05
14 *51:10 *84:28 7.02772e-05
15 inc[2] *210:B1 2.90035e-05
16 *204:B *210:B1 4.50291e-05
17 *210:A1 *210:B1 9.41642e-05
18 *226:A *51:10 4.86495e-05
19 *227:A *51:10 0
20 *50:14 *51:10 0.00113878
*RES
1 *225:X *51:10 36.2196 
2 *51:10 *210:B1 23.9801 
3 *51:10 *218:A 15.8982 
*END

*D_NET *52 0.00492899
*CONN
*I *198:A I *D sky130_fd_sc_hd__or2_1
*I *226:X O *D sky130_fd_sc_hd__clkbuf_1
*CAP
1 *198:A 0.00017903
2 *226:X 0.0015454
3 *52:20 0.00172443
4 *198:A *80:47 1.33343e-05
5 *52:20 *197:A 0.000142856
6 *52:20 *53:20 0.000595964
7 *52:20 *54:12 0.000359524
8 *52:20 *57:16 8.81334e-05
9 *52:20 *78:31 4.46186e-06
10 *52:20 *80:47 1.69961e-05
11 *227:A *52:20 3.67257e-05
12 *43:8 *198:A 0.000122159
13 *43:15 *198:A 9.90367e-05
14 *51:10 *52:20 9.33978e-07
*RES
1 *226:X *52:20 46.4607 
2 *52:20 *198:A 13.5321 
*END

*D_NET *53 0.00471836
*CONN
*I *199:A I *D sky130_fd_sc_hd__or2_1
*I *227:X O *D sky130_fd_sc_hd__clkbuf_1
*CAP
1 *199:A 0
2 *227:X 0.000901439
3 *53:20 0.000901439
4 *53:20 *202:A 7.41433e-05
5 *53:20 *203:A 0
6 *53:20 *250:A 5.30637e-06
7 *53:20 *54:12 0.000789268
8 *53:20 *55:20 0.000321931
9 *200:B *53:20 0.000126446
10 *203:B *53:20 2.24646e-05
11 *228:A *53:20 5.52302e-05
12 *229:A *53:20 5.52302e-05
13 *230:A *53:20 5.52302e-05
14 *232:A *53:20 2.8266e-06
15 *43:15 *53:20 5.33005e-05
16 *43:47 *53:20 4.72917e-05
17 *46:16 *53:20 0.000710853
18 *52:20 *53:20 0.000595964
*RES
1 *227:X *53:20 49.0143 
2 *53:20 *199:A 9.3 
*END

*D_NET *54 0.00383071
*CONN
*I *200:A I *D sky130_fd_sc_hd__or2_1
*I *228:X O *D sky130_fd_sc_hd__clkbuf_1
*CAP
1 *200:A 0
2 *228:X 0.0012058
3 *54:12 0.0012058
4 *54:12 *202:A 0.000270326
5 *54:12 *203:A 0
6 *52:20 *54:12 0.000359524
7 *53:20 *54:12 0.000789268
*RES
1 *228:X *54:12 40.7643 
2 *54:12 *200:A 9.3 
*END

*D_NET *55 0.00448027
*CONN
*I *201:A I *D sky130_fd_sc_hd__or2_1
*I *229:X O *D sky130_fd_sc_hd__clkbuf_1
*CAP
1 *201:A 0
2 *229:X 0.00128529
3 *55:20 0.00128529
4 *55:20 *202:A 0.00109237
5 *55:20 *203:A 1.00375e-05
6 *55:20 *247:A 7.32272e-05
7 *55:20 *248:A 0.00012401
8 *55:20 *249:A 0
9 *55:20 *57:14 0
10 *201:B *55:20 5.52302e-05
11 *230:A *55:20 5.52302e-05
12 *232:A *55:20 2.89114e-05
13 *43:47 *55:20 1.98839e-05
14 *46:16 *55:20 0.000128866
15 *53:20 *55:20 0.000321931
*RES
1 *229:X *55:20 45.925 
2 *55:20 *201:A 9.3 
*END

*D_NET *56 0.00340085
*CONN
*I *202:A I *D sky130_fd_sc_hd__or2_1
*I *230:X O *D sky130_fd_sc_hd__clkbuf_1
*CAP
1 *202:A 0.000470013
2 *230:X 0.000470013
3 *202:A *203:A 0.000577387
4 *46:16 *202:A 0.000446603
5 *53:20 *202:A 7.41433e-05
6 *54:12 *202:A 0.000270326
7 *55:20 *202:A 0.00109237
*RES
1 *230:X *202:A 46.4393 
*END

*D_NET *57 0.00646295
*CONN
*I *211:C I *D sky130_fd_sc_hd__and3b_1
*I *195:A I *D sky130_fd_sc_hd__inv_2
*I *231:X O *D sky130_fd_sc_hd__buf_1
*CAP
1 *211:C 0.000377168
2 *195:A 2.92268e-05
3 *231:X 0.00176351
4 *57:16 0.000605603
5 *57:14 0.00196271
6 *195:A *78:27 0.000185118
7 *195:A *80:47 0.000185118
8 *211:C *256:A 0
9 *211:C *78:31 0.000168334
10 *211:C *79:32 0.000440253
11 *57:16 *78:31 3.12359e-05
12 *57:16 *80:38 0
13 *210:A1 *211:C 0.000576776
14 *217:A2 *211:C 0
15 *42:10 *211:C 3.95139e-05
16 *45:10 *211:C 1.02504e-05
17 *52:20 *57:16 8.81334e-05
18 *55:20 *57:14 0
*RES
1 *231:X *57:14 46.3179 
2 *57:14 *57:16 4.07143 
3 *57:16 *195:A 15.5679 
4 *57:16 *211:C 32.925 
*END

*D_NET *58 0.00208905
*CONN
*I *203:A I *D sky130_fd_sc_hd__or2_1
*I *232:X O *D sky130_fd_sc_hd__clkbuf_1
*CAP
1 *203:A 0.000718279
2 *232:X 0.000718279
3 *203:A *246:A 1.88048e-05
4 *203:A *248:A 0
5 *203:A *250:A 4.62632e-05
6 *200:B *203:A 0
7 *202:A *203:A 0.000577387
8 *203:B *203:A 0
9 *53:20 *203:A 0
10 *54:12 *203:A 0
11 *55:20 *203:A 1.00375e-05
*RES
1 *232:X *203:A 44.1179 
*END

*D_NET *59 0.000862452
*CONN
*I *240:A I *D sky130_fd_sc_hd__buf_2
*I *210:X O *D sky130_fd_sc_hd__o21a_1
*CAP
1 *240:A 0.000164684
2 *210:X 0.000164684
3 *240:A *204:C 5.33005e-05
4 *240:A *206:A3 7.20217e-06
5 *240:A *78:31 2.05938e-05
6 *240:A *78:35 0.000137983
7 dec[0] *240:A 0.00021318
8 *204:B *240:A 0.000100823
*RES
1 *210:X *240:A 31.9571 
*END

*D_NET *60 0.000288383
*CONN
*I *241:A I *D sky130_fd_sc_hd__buf_2
*I *209:X O *D sky130_fd_sc_hd__a31o_1
*CAP
1 *241:A 6.84588e-05
2 *209:X 6.84588e-05
3 *241:A *209:A3 7.73662e-05
4 dec[5] *241:A 7.40992e-05