*SPEF "ieee 1481-1999"
*DESIGN "counter_all"
*DATE "19:00:14 Friday January 16, 2026"
*VENDOR "The OpenROAD Project"
*PROGRAM "OpenROAD"
*VERSION "edf00dff99f6c40d67a30c0e22a8191c5d2ed9d6"
*DESIGN_FLOW "NAME_SCOPE LOCAL" "PIN_CAP NONE"
*DIVIDER /
*DELIMITER :
*BUS_DELIMITER []
*T_UNIT 1 NS
*C_UNIT 1 PF
*R_UNIT 1 OHM
*L_UNIT 1 HENRY

*NAME_MAP
*3 clk
*4 day[0]
*5 day[1]
*6 day[2]
*7 day[3]
*8 day[4]
*9 day_num[0]
*10 day_num[1]
*11 day_num[2]
*12 day_num[3]
*13 day_num[4]
*14 dec[0]
*15 dec[1]
*16 dec[2]
*17 dec[3]
*18 dec[4]
*19 dec[5]
*20 done_dec[0]
*21 done_dec[1]
*22 done_dec[2]
*23 done_dec[3]
*24 done_dec[4]
*25 done_inc[0]
*26 done_inc[1]
*27 done_inc[2]
*28 done_inc[3]
*29 done_inc[4]
*30 en[0]
*31 en[1]
*32 en[2]
*33 en[3]
*34 en[4]
*35 en[5]
*36 hour[0]
*37 hour[1]
*38 hour[2]
*39 hour[3]
*40 hour[4]
*41 hour_num[0]
*42 hour_num[1]
*43 hour_num[2]
*44 hour_num[3]
*45 hour_num[4]
*46 inc[0]
*47 inc[1]
*48 inc[2]
*49 inc[3]
*50 inc[4]
*51 inc[5]
*52 minute[0]
*53 minute[1]
*54 minute[2]
*55 minute[3]
*56 minute[4]
*57 minute[5]
*58 month[0]
*59 month[1]
*60 month[2]
*61 month[3]
*62 reset_n
*63 second[0]
*64 second[1]
*65 second[2]
*66 second[3]
*67 second[4]
*68 second[5]
*69 year[0]
*70 year[1]
*71 year[2]
*72 year[3]
*73 year[4]
*74 year[5]
*75 year[6]
*76 _000_
*77 _001_
*78 _002_
*79 _003_
*80 _004_
*81 _005_
*82 _006_
*83 _007_
*84 _008_
*85 _009_
*86 _010_
*87 _011_
*88 _012_
*89 _013_
*90 _014_
*91 _015_
*92 _016_
*93 _017_
*94 _018_
*95 _019_
*96 _020_
*97 _021_
*98 _022_
*99 _023_
*100 _024_
*101 _025_
*102 _026_
*103 _027_
*104 _028_
*105 _029_
*106 _030_
*107 _031_
*108 _032_
*109 _033_
*110 _034_
*111 _035_
*112 _036_
*113 _037_
*114 _038_
*115 _039_
*116 _040_
*117 _041_
*118 _042_
*119 _043_
*120 _044_
*121 _045_
*122 _046_
*123 _047_
*124 _048_
*125 _049_
*126 _050_
*127 _051_
*128 _052_
*129 _053_
*130 _054_
*131 _055_
*132 _056_
*133 _057_
*134 _058_
*135 _059_
*136 _060_
*137 _061_
*138 _062_
*139 _063_
*140 _064_
*141 _065_
*142 _066_
*143 _067_
*144 _068_
*145 _069_
*146 _070_
*147 _071_
*148 _072_
*149 _073_
*150 _074_
*151 _075_
*152 _076_
*153 _077_
*154 _078_
*155 _079_
*156 _080_
*157 _081_
*158 _082_
*159 _083_
*160 _084_
*161 _085_
*162 _086_
*163 _087_
*164 _088_
*165 _089_
*166 _090_
*167 _091_
*168 _092_
*169 _093_
*170 _094_
*171 _095_
*172 _096_
*173 _097_
*174 _098_
*175 _099_
*176 _100_
*177 _101_
*178 _102_
*179 _103_
*180 _104_
*181 _105_
*182 _106_
*183 _107_
*184 _108_
*185 _109_
*186 _110_
*187 _111_
*188 _112_
*189 _113_
*190 _114_
*191 _115_
*192 _116_
*193 _117_
*194 _118_
*195 _119_
*196 _120_
*197 _121_
*198 _122_
*199 _123_
*200 _124_
*201 _125_
*202 _126_
*203 _127_
*204 _128_
*205 _129_
*206 _130_
*207 _131_
*208 _132_
*209 _133_
*210 _134_
*211 _135_
*212 _136_
*213 _137_
*214 _138_
*215 _139_
*216 _140_
*217 _141_
*218 _142_
*219 _143_
*220 _144_
*221 _145_
*222 _146_
*223 _147_
*224 _148_
*225 _149_
*226 _150_
*227 _151_
*228 _152_
*229 _153_
*230 _154_
*231 _155_
*232 _156_
*233 _157_
*234 _158_
*235 _159_
*236 _160_
*237 _161_
*238 _162_
*239 _163_
*240 _164_
*241 _165_
*242 _166_
*243 _167_
*244 _168_
*245 _169_
*246 _170_
*247 _171_
*248 _172_
*249 _173_
*250 _174_
*251 _175_
*252 _176_
*253 _177_
*254 _178_
*255 _179_
*256 _180_
*257 _181_
*258 _182_
*259 _183_
*260 _184_
*261 _185_
*262 _186_
*263 _187_
*264 _188_
*265 _189_
*266 _190_
*267 _191_
*268 _192_
*269 _193_
*270 _194_
*271 _195_
*272 _196_
*273 _197_
*274 _198_
*275 _199_
*276 _200_
*277 _201_
*278 _202_
*279 _203_
*280 _204_
*281 _205_
*282 _206_
*283 _207_
*284 _208_
*285 _209_
*286 _210_
*287 _211_
*288 _212_
*289 _213_
*290 _214_
*291 _215_
*292 _216_
*293 _217_
*294 _218_
*295 _219_
*296 _220_
*297 _221_
*298 _222_
*299 _223_
*300 _224_
*301 _225_
*302 _226_
*303 _227_
*304 _228_
*305 _229_
*306 _230_
*307 _231_
*308 _232_
*309 _233_
*310 _234_
*311 _235_
*312 _236_
*313 _237_
*314 _238_
*315 _239_
*316 _240_
*317 _241_
*318 _242_
*319 _243_
*320 _244_
*321 _245_
*322 _246_
*323 _247_
*324 _248_
*325 _249_
*326 _250_
*327 _251_
*328 _252_
*329 _253_
*330 _254_
*331 _255_
*332 _256_
*333 _257_
*334 _258_
*335 _259_
*336 _260_
*337 _261_
*338 _262_
*339 _263_
*340 _264_
*341 _265_
*342 _266_
*343 _267_
*344 _268_
*345 _269_
*346 _270_
*347 _271_
*348 _272_
*349 _273_
*350 _274_
*351 _275_
*352 _276_
*353 _277_
*354 _278_
*355 _279_
*356 _280_
*357 _281_
*358 _282_
*359 _283_
*360 _284_
*361 _285_
*362 _286_
*363 _287_
*364 _288_
*365 _289_
*366 _290_
*367 _291_
*368 _292_
*369 _293_
*370 _294_
*371 _295_
*372 _296_
*373 _297_
*374 _298_
*375 _299_
*376 _300_
*377 _301_
*378 _302_
*379 _303_
*380 _304_
*381 _305_
*382 clknet_0_clk
*383 clknet_2_0__leaf_clk
*384 clknet_2_1__leaf_clk
*385 clknet_2_2__leaf_clk
*386 clknet_2_3__leaf_clk
*387 day_inst\.done_dec
*388 day_inst\.done_inc
*389 hour_inst\.done_dec
*390 hour_inst\.done_inc
*391 minute_inst\.done_dec
*392 minute_inst\.done_inc
*393 month_inst\.done_dec
*394 month_inst\.done_inc
*395 net1
*396 net10
*397 net11
*398 net12
*399 net13
*400 net14
*401 net15
*402 net16
*403 net17
*404 net18
*405 net19
*406 net2
*407 net20
*408 net21
*409 net22
*410 net23
*411 net24
*412 net25
*413 net26
*414 net27
*415 net28
*416 net29
*417 net3
*418 net30
*419 net31
*420 net32
*421 net33
*422 net34
*423 net35
*424 net36
*425 net37
*426 net38
*427 net39
*428 net4
*429 net40
*430 net41
*431 net42
*432 net43
*433 net44
*434 net45
*435 net46
*436 net47
*437 net48
*438 net49
*439 net5
*440 net50
*441 net51
*442 net52
*443 net53
*444 net54
*445 net55
*446 net56
*447 net57
*448 net58
*449 net59
*450 net6
*451 net60
*452 net61
*453 net62
*454 net63
*455 net64
*456 net65
*457 net66
*458 net67
*459 net68
*460 net69
*461 net7
*462 net70
*463 net71
*464 net72
*465 net73
*466 net74
*467 net75
*468 net76
*469 net77
*470 net78
*471 net79
*472 net8
*473 net80
*474 net81
*475 net82
*476 net83
*477 net9
*478 second_inst\.done_dec
*479 second_inst\.done_inc
*480 FILLER_0_103
*481 FILLER_0_11
*482 FILLER_0_151
*483 FILLER_0_158
*484 FILLER_0_17
*485 FILLER_0_23
*486 FILLER_0_29
*487 FILLER_0_48
*488 FILLER_0_61
*489 FILLER_0_90
*490 FILLER_10_124
*491 FILLER_10_131
*492 FILLER_10_147
*493 FILLER_10_15
*494 FILLER_10_27
*495 FILLER_10_3
*496 FILLER_10_70
*497 FILLER_10_82
*498 FILLER_10_85
*499 FILLER_10_93
*500 FILLER_11_107
*501 FILLER_11_113
*502 FILLER_11_15
*503 FILLER_11_27
*504 FILLER_11_3
*505 FILLER_11_35
*506 FILLER_11_95
*507 FILLER_12_108
*508 FILLER_12_116
*509 FILLER_12_129
*510 FILLER_12_141
*511 FILLER_12_15
*512 FILLER_12_155
*513 FILLER_12_27
*514 FILLER_12_29
*515 FILLER_12_3
*516 FILLER_12_45
*517 FILLER_12_56
*518 FILLER_12_64
*519 FILLER_12_72
*520 FILLER_12_96
*521 FILLER_13_110
*522 FILLER_13_144
*523 FILLER_13_15
*524 FILLER_13_27
*525 FILLER_13_3
*526 FILLER_13_44
*527 FILLER_14_141
*528 FILLER_14_15
*529 FILLER_14_150
*530 FILLER_14_27
*531 FILLER_14_3
*532 FILLER_14_50
*533 FILLER_14_54
*534 FILLER_14_61
*535 FILLER_14_83
*536 FILLER_15_111
*537 FILLER_15_15
*538 FILLER_15_27
*539 FILLER_15_3
*540 FILLER_15_39
*541 FILLER_15_99
*542 FILLER_16_112
*543 FILLER_16_124
*544 FILLER_16_136
*545 FILLER_16_141
*546 FILLER_16_15
*547 FILLER_16_27
*548 FILLER_16_29
*549 FILLER_16_3
*550 FILLER_16_41
*551 FILLER_16_56
*552 FILLER_16_67
*553 FILLER_16_76
*554 FILLER_16_93
*555 FILLER_17_101
*556 FILLER_17_124
*557 FILLER_17_134
*558 FILLER_17_20
*559 FILLER_17_3
*560 FILLER_17_32
*561 FILLER_17_57
*562 FILLER_17_73
*563 FILLER_17_8
*564 FILLER_17_81
*565 FILLER_17_93
*566 FILLER_17_97
*567 FILLER_18_108
*568 FILLER_18_147
*569 FILLER_18_15
*570 FILLER_18_27
*571 FILLER_18_29
*572 FILLER_18_3
*573 FILLER_18_41
*574 FILLER_18_79
*575 FILLER_18_83
*576 FILLER_19_120
*577 FILLER_19_15
*578 FILLER_19_27
*579 FILLER_19_3
*580 FILLER_1_12
*581 FILLER_1_158
*582 FILLER_1_18
*583 FILLER_1_3
*584 FILLER_1_35
*585 FILLER_1_78
*586 FILLER_20_118
*587 FILLER_20_15
*588 FILLER_20_27
*589 FILLER_20_29
*590 FILLER_20_3
*591 FILLER_20_76
*592 FILLER_20_83
*593 FILLER_21_111
*594 FILLER_21_15
*595 FILLER_21_27
*596 FILLER_21_3
*597 FILLER_21_39
*598 FILLER_21_57
*599 FILLER_21_85
*600 FILLER_22_105
*601 FILLER_22_113
*602 FILLER_22_119
*603 FILLER_22_131
*604 FILLER_22_15
*605 FILLER_22_27
*606 FILLER_22_29
*607 FILLER_22_3
*608 FILLER_22_41
*609 FILLER_22_53
*610 FILLER_22_60
*611 FILLER_22_65
*612 FILLER_22_69
*613 FILLER_22_77
*614 FILLER_23_108
*615 FILLER_23_128
*616 FILLER_23_13
*617 FILLER_23_25
*618 FILLER_23_79
*619 FILLER_23_90
*620 FILLER_23_96
*621 FILLER_24_118
*622 FILLER_24_141
*623 FILLER_24_15
*624 FILLER_24_27
*625 FILLER_24_29
*626 FILLER_24_3
*627 FILLER_24_41
*628 FILLER_24_50
*629 FILLER_24_59
*630 FILLER_24_80
*631 FILLER_25_15
*632 FILLER_25_27
*633 FILLER_25_3
*634 FILLER_25_57
*635 FILLER_25_66
*636 FILLER_26_120
*637 FILLER_26_138
*638 FILLER_26_15
*639 FILLER_26_27
*640 FILLER_26_29
*641 FILLER_26_3
*642 FILLER_26_41
*643 FILLER_26_53
*644 FILLER_26_65
*645 FILLER_26_85
*646 FILLER_2_114
*647 FILLER_2_15
*648 FILLER_2_155
*649 FILLER_2_3
*650 FILLER_3_108
*651 FILLER_3_121
*652 FILLER_3_3
*653 FILLER_3_33
*654 FILLER_3_55
*655 FILLER_3_64
*656 FILLER_3_95
*657 FILLER_4_126
*658 FILLER_4_141
*659 FILLER_4_15
*660 FILLER_4_23
*661 FILLER_4_3
*662 FILLER_4_63
*663 FILLER_4_83
*664 FILLER_4_85
*665 FILLER_4_97
*666 FILLER_5_3
*667 FILLER_5_32
*668 FILLER_5_57
*669 FILLER_5_92
*670 FILLER_6_127
*671 FILLER_6_148
*672 FILLER_6_15
*673 FILLER_6_19
*674 FILLER_6_29
*675 FILLER_6_3
*676 FILLER_6_69
*677 FILLER_6_82
*678 FILLER_6_90
*679 FILLER_6_98
*680 FILLER_7_134
*681 FILLER_7_148
*682 FILLER_7_15
*683 FILLER_7_155
*684 FILLER_7_3
*685 FILLER_7_57
*686 FILLER_7_67
*687 FILLER_7_71
*688 FILLER_7_80
*689 FILLER_8_15
*690 FILLER_8_158
*691 FILLER_8_27
*692 FILLER_8_3
*693 FILLER_8_52
*694 FILLER_8_85
*695 FILLER_9_113
*696 FILLER_9_15
*697 FILLER_9_158
*698 FILLER_9_27
*699 FILLER_9_3
*700 FILLER_9_39
*701 FILLER_9_50
*702 FILLER_9_57
*703 PHY_EDGE_ROW_0_Left_27
*704 PHY_EDGE_ROW_0_Right_0
*705 PHY_EDGE_ROW_10_Left_37
*706 PHY_EDGE_ROW_10_Right_10
*707 PHY_EDGE_ROW_11_Left_38
*708 PHY_EDGE_ROW_11_Right_11
*709 PHY_EDGE_ROW_12_Left_39
*710 PHY_EDGE_ROW_12_Right_12
*711 PHY_EDGE_ROW_13_Left_40
*712 PHY_EDGE_ROW_13_Right_13
*713 PHY_EDGE_ROW_14_Left_41
*714 PHY_EDGE_ROW_14_Right_14
*715 PHY_EDGE_ROW_15_Left_42
*716 PHY_EDGE_ROW_15_Right_15
*717 PHY_EDGE_ROW_16_Left_43
*718 PHY_EDGE_ROW_16_Right_16
*719 PHY_EDGE_ROW_17_Left_44
*720 PHY_EDGE_ROW_17_Right_17
*721 PHY_EDGE_ROW_18_Left_45
*722 PHY_EDGE_ROW_18_Right_18
*723 PHY_EDGE_ROW_19_Left_46
*724 PHY_EDGE_ROW_19_Right_19
*725 PHY_EDGE_ROW_1_Left_28
*726 PHY_EDGE_ROW_1_Right_1
*727 PHY_EDGE_ROW_20_Left_47
*728 PHY_EDGE_ROW_20_Right_20
*729 PHY_EDGE_ROW_21_Left_48
*730 PHY_EDGE_ROW_21_Right_21
*731 PHY_EDGE_ROW_22_Left_49
*732 PHY_EDGE_ROW_22_Right_22
*733 PHY_EDGE_ROW_23_Left_50
*734 PHY_EDGE_ROW_23_Right_23
*735 PHY_EDGE_ROW_24_Left_51
*736 PHY_EDGE_ROW_24_Right_24
*737 PHY_EDGE_ROW_25_Left_52
*738 PHY_EDGE_ROW_25_Right_25
*739 PHY_EDGE_ROW_26_Left_53
*740 PHY_EDGE_ROW_26_Right_26
*741 PHY_EDGE_ROW_2_Left_29
*742 PHY_EDGE_ROW_2_Right_2
*743 PHY_EDGE_ROW_3_Left_30
*744 PHY_EDGE_ROW_3_Right_3
*745 PHY_EDGE_ROW_4_Left_31
*746 PHY_EDGE_ROW_4_Right_4
*747 PHY_EDGE_ROW_5_Left_32
*748 PHY_EDGE_ROW_5_Right_5
*749 PHY_EDGE_ROW_6_Left_33
*750 PHY_EDGE_ROW_6_Right_6
*751 PHY_EDGE_ROW_7_Left_34
*752 PHY_EDGE_ROW_7_Right_7
*753 PHY_EDGE_ROW_8_Left_35
*754 PHY_EDGE_ROW_8_Right_8
*755 PHY_EDGE_ROW_9_Left_36
*756 PHY_EDGE_ROW_9_Right_9
*757 TAP_TAPCELL_ROW_0_54
*758 TAP_TAPCELL_ROW_0_55
*759 TAP_TAPCELL_ROW_0_56
*760 TAP_TAPCELL_ROW_0_57
*761 TAP_TAPCELL_ROW_0_58
*762 TAP_TAPCELL_ROW_10_81
*763 TAP_TAPCELL_ROW_10_82
*764 TAP_TAPCELL_ROW_10_83
*765 TAP_TAPCELL_ROW_11_84
*766 TAP_TAPCELL_ROW_11_85
*767 TAP_TAPCELL_ROW_12_86
*768 TAP_TAPCELL_ROW_12_87
*769 TAP_TAPCELL_ROW_12_88
*770 TAP_TAPCELL_ROW_13_89
*771 TAP_TAPCELL_ROW_13_90
*772 TAP_TAPCELL_ROW_14_91
*773 TAP_TAPCELL_ROW_14_92
*774 TAP_TAPCELL_ROW_14_93
*775 TAP_TAPCELL_ROW_15_94
*776 TAP_TAPCELL_ROW_15_95
*777 TAP_TAPCELL_ROW_16_96
*778 TAP_TAPCELL_ROW_16_97
*779 TAP_TAPCELL_ROW_16_98
*780 TAP_TAPCELL_ROW_17_100
*781 TAP_TAPCELL_ROW_17_99
*782 TAP_TAPCELL_ROW_18_101
*783 TAP_TAPCELL_ROW_18_102
*784 TAP_TAPCELL_ROW_18_103
*785 TAP_TAPCELL_ROW_19_104
*786 TAP_TAPCELL_ROW_19_105
*787 TAP_TAPCELL_ROW_1_59
*788 TAP_TAPCELL_ROW_1_60
*789 TAP_TAPCELL_ROW_20_106
*790 TAP_TAPCELL_ROW_20_107
*791 TAP_TAPCELL_ROW_20_108
*792 TAP_TAPCELL_ROW_21_109
*793 TAP_TAPCELL_ROW_21_110
*794 TAP_TAPCELL_ROW_22_111
*795 TAP_TAPCELL_ROW_22_112
*796 TAP_TAPCELL_ROW_22_113
*797 TAP_TAPCELL_ROW_23_114
*798 TAP_TAPCELL_ROW_23_115
*799 TAP_TAPCELL_ROW_24_116
*800 TAP_TAPCELL_ROW_24_117
*801 TAP_TAPCELL_ROW_24_118
*802 TAP_TAPCELL_ROW_25_119
*803 TAP_TAPCELL_ROW_25_120
*804 TAP_TAPCELL_ROW_26_121
*805 TAP_TAPCELL_ROW_26_122
*806 TAP_TAPCELL_ROW_26_123
*807 TAP_TAPCELL_ROW_26_124
*808 TAP_TAPCELL_ROW_26_125
*809 TAP_TAPCELL_ROW_2_61
*810 TAP_TAPCELL_ROW_2_62
*811 TAP_TAPCELL_ROW_2_63
*812 TAP_TAPCELL_ROW_3_64
*813 TAP_TAPCELL_ROW_3_65
*814 TAP_TAPCELL_ROW_4_66
*815 TAP_TAPCELL_ROW_4_67
*816 TAP_TAPCELL_ROW_4_68
*817 TAP_TAPCELL_ROW_5_69
*818 TAP_TAPCELL_ROW_5_70
*819 TAP_TAPCELL_ROW_6_71
*820 TAP_TAPCELL_ROW_6_72
*821 TAP_TAPCELL_ROW_6_73
*822 TAP_TAPCELL_ROW_7_74
*823 TAP_TAPCELL_ROW_7_75
*824 TAP_TAPCELL_ROW_8_76
*825 TAP_TAPCELL_ROW_8_77
*826 TAP_TAPCELL_ROW_8_78
*827 TAP_TAPCELL_ROW_9_79
*828 TAP_TAPCELL_ROW_9_80
*829 _306_
*830 _307_
*831 _308_
*832 _309_
*833 _310_
*834 _311_
*835 _312_
*836 _313_
*837 _314_
*838 _315_
*839 _316_
*840 _317_
*841 _318_
*842 _319_
*843 _320_
*844 _321_
*845 _322_
*846 _323_
*847 _324_
*848 _325_
*849 _326_
*850 _327_
*851 _328_
*852 _329_
*853 _330_
*854 _331_
*855 _332_
*856 _333_
*857 _334_
*858 _335_
*859 _336_
*860 _337_
*861 _338_
*862 _339_
*863 _340_
*864 _341_
*865 _342_
*866 _343_
*867 _344_
*868 _345_
*869 _346_
*870 _347_
*871 _348_
*872 _349_
*873 _350_
*874 _351_
*875 _352_
*876 _353_
*877 _354_
*878 _355_
*879 _356_
*880 _357_
*881 _358_
*882 _359_
*883 _360_
*884 _361_
*885 _362_
*886 _363_
*887 _364_
*888 _365_
*889 _366_
*890 _367_
*891 _368_
*892 _369_
*893 _370_
*894 _371_
*895 _372_
*896 _373_
*897 _374_
*898 _375_
*899 _376_
*900 _377_
*901 _378_
*902 _379_
*903 _380_
*904 _381_
*905 _382_
*906 _383_
*907 _384_
*908 _385_
*909 _386_
*910 _387_
*911 _388_
*912 _389_
*913 _390_
*914 _391_
*915 _392_
*916 _393_
*917 _394_
*918 _395_
*919 _396_
*920 _397_
*921 _398_
*922 _399_
*923 _400_
*924 _401_
*925 _402_
*926 _403_
*927 _404_
*928 _405_
*929 _406_
*930 _407_
*931 _408_
*932 _409_
*933 _410_
*934 _411_
*935 _412_
*936 _413_
*937 _414_
*938 _415_
*939 _416_
*940 _417_
*941 _418_
*942 _419_
*943 _420_
*944 _421_
*945 _422_
*946 _423_
*947 _424_
*948 _425_
*949 _426_
*950 _427_
*951 _428_
*952 _429_
*953 _430_
*954 _431_
*955 _432_
*956 _433_
*957 _434_
*958 _435_
*959 _436_
*960 _437_
*961 _438_
*962 _439_
*963 _440_
*964 _441_
*965 _442_
*966 _443_
*967 _444_
*968 _445_
*969 _446_
*970 _447_
*971 _448_
*972 _449_
*973 _450_
*974 _451_
*975 _452_
*976 _453_
*977 _454_
*978 _455_
*979 _456_
*980 _457_
*981 _458_
*982 _459_
*983 _460_
*984 _461_
*985 _462_
*986 _463_
*987 _464_
*988 _465_
*989 _466_
*990 _467_
*991 _468_
*992 _469_
*993 _470_
*994 _471_
*995 _472_
*996 _473_
*997 _474_
*998 _475_
*999 _476_
*1000 _477_
*1001 _478_
*1002 _479_
*1003 _480_
*1004 _481_
*1005 _482_
*1006 _483_
*1007 _484_
*1008 _485_
*1009 _486_
*1010 _487_
*1011 _488_
*1012 _489_
*1013 _490_
*1014 _491_
*1015 _492_
*1016 _493_
*1017 _494_
*1018 _495_
*1019 _496_
*1020 _497_
*1021 _498_
*1022 _499_
*1023 _500_
*1024 _501_
*1025 _502_
*1026 _503_
*1027 _504_
*1028 _505_
*1029 _506_
*1030 _507_
*1031 _508_
*1032 _509_
*1033 _510_
*1034 _511_
*1035 _512_
*1036 _513_
*1037 _514_
*1038 _515_
*1039 _516_
*1040 _517_
*1041 _518_
*1042 _519_
*1043 _520_
*1044 _521_
*1045 _522_
*1046 _523_
*1047 _524_
*1048 _525_
*1049 _526_
*1050 _527_
*1051 _528_
*1052 _529_
*1053 _530_
*1054 _531_
*1055 _532_
*1056 _533_
*1057 _534_
*1058 _535_
*1059 _536_
*1060 _537_
*1061 _538_
*1062 _539_
*1063 _540_
*1064 _541_
*1065 _542_
*1066 _543_
*1067 _544_
*1068 _545_
*1069 _546_
*1070 _547_
*1071 _548_
*1072 _549_
*1073 _550_
*1074 _551_
*1075 _552_
*1076 _553_
*1077 _554_
*1078 _555_
*1079 _556_
*1080 _557_
*1081 _558_
*1082 _559_
*1083 _560_
*1084 _561_
*1085 _562_
*1086 _563_
*1087 _564_
*1088 _565_
*1089 _566_
*1090 _567_
*1091 _568_
*1092 _569_
*1093 _570_
*1094 _571_
*1095 _572_
*1096 _573_
*1097 _574_
*1098 _575_
*1099 _576_
*1100 _577_
*1101 _578_
*1102 _579_
*1103 _580_
*1104 _581_
*1105 _582_
*1106 _583_
*1107 _584_
*1108 _585_
*1109 _586_
*1110 _587_
*1111 _588_
*1112 _589_
*1113 _590_
*1114 _591_
*1115 _592_
*1116 _593_
*1117 _594_
*1118 _595_
*1119 _596_
*1120 _597_
*1121 _598_
*1122 _599_
*1123 _600_
*1124 _601_
*1125 _602_
*1126 _603_
*1127 _604_
*1128 _605_
*1129 _606_
*1130 _607_
*1131 _608_
*1132 _609_
*1133 _610_
*1134 _611_
*1135 _612_
*1136 _613_
*1137 _614_
*1138 _615_
*1139 _616_
*1140 _617_
*1141 _618_
*1142 _619_
*1143 _620_
*1144 _621_
*1145 _622_
*1146 _623_
*1147 _624_
*1148 _625_
*1149 _626_
*1150 _627_
*1151 _628_
*1152 _629_
*1153 _630_
*1154 _631_
*1155 _632_
*1156 _633_
*1157 _634_
*1158 _635_
*1159 _636_
*1160 _637_
*1161 _638_
*1162 _639_
*1163 _640_
*1164 _641_
*1165 _642_
*1166 _643_
*1167 _644_
*1168 _645_
*1169 _646_
*1170 _647_
*1171 _648_
*1172 _649_
*1173 _650_
*1174 _651_
*1175 _652_
*1176 _653_
*1177 _654_
*1178 _655_
*1179 _656_
*1180 _657_
*1181 _658_
*1182 _659_
*1183 _660_
*1184 _661_
*1185 _662_
*1186 _663_
*1187 _664_
*1188 clkbuf_0_clk
*1189 clkbuf_2_0__f_clk
*1190 clkbuf_2_1__f_clk
*1191 clkbuf_2_2__f_clk
*1192 clkbuf_2_3__f_clk
*1193 clkload0
*1194 clkload1
*1195 clkload2
*1196 fanout73
*1197 fanout74
*1198 fanout75
*1199 fanout76
*1200 fanout77
*1201 fanout78
*1202 fanout79
*1203 hold1
*1204 hold2
*1205 hold3
*1206 hold4
*1207 input1
*1208 input10
*1209 input11
*1210 input12
*1211 input13
*1212 input14
*1213 input15
*1214 input16
*1215 input17
*1216 input18
*1217 input19
*1218 input2
*1219 input20
*1220 input21
*1221 input22
*1222 input23
*1223 input24
*1224 input25
*1225 input26
*1226 input27
*1227 input28
*1228 input29
*1229 input3
*1230 input4
*1231 input5
*1232 input6
*1233 input7
*1234 input8
*1235 input9
*1236 output30
*1237 output31
*1238 output32
*1239 output33
*1240 output34
*1241 output35
*1242 output36
*1243 output37
*1244 output38
*1245 output39
*1246 output40
*1247 output41
*1248 output42
*1249 output43
*1250 output44
*1251 output45
*1252 output46
*1253 output47
*1254 output48
*1255 output49
*1256 output50
*1257 output51
*1258 output52
*1259 output53
*1260 output54
*1261 output55
*1262 output56
*1263 output57
*1264 output58
*1265 output59
*1266 output60
*1267 output61
*1268 output62
*1269 output63
*1270 output64
*1271 output65
*1272 output66
*1273 output67
*1274 output68
*1275 output69
*1276 output70
*1277 output71
*1278 output72

*PORTS
clk I
day[0] O
day[1] O
day[2] O
day[3] O
day[4] O
day_num[0] I
day_num[1] I
day_num[2] I
day_num[3] I
day_num[4] I
dec[0] I
dec[1] I
dec[2] I
dec[3] I
dec[4] I
dec[5] I
done_dec[0] O
done_dec[1] O
done_dec[2] O
done_dec[3] O
done_dec[4] O
done_inc[0] O
done_inc[1] O
done_inc[2] O
done_inc[3] O
done_inc[4] O
en[0] I
en[1] I
en[2] I
en[3] I
en[4] I
en[5] I
hour[0] O
hour[1] O
hour[2] O
hour[3] O
hour[4] O
hour_num[0] I
hour_num[1] I
hour_num[2] I
hour_num[3] I
hour_num[4] I
inc[0] I
inc[1] I
inc[2] I
inc[3] I
inc[4] I
inc[5] I
minute[0] O
minute[1] O
minute[2] O
minute[3] O
minute[4] O
minute[5] O
month[0] O
month[1] O
month[2] O
month[3] O
reset_n I
second[0] O
second[1] O
second[2] O
second[3] O
second[4] O
second[5] O
year[0] O
year[1] O
year[2] O
year[3] O
year[4] O
year[5] O
year[6] O

*D_NET *3 0.0103151
*CONN
*P clk I
*I *1188:A I *D sky130_fd_sc_hd__clkbuf_16
*CAP
1 clk 0.00335786
2 *1188:A 0
3 *3:13 0.00335786
4 *3:13 *1093:A 0.000367689
5 *3:13 *1103:B1 2.68751e-05
6 *3:13 *1105:A1 0.000108681
7 *3:13 *125:14 7.31265e-05
8 *3:13 *125:18 0.00015225
9 *3:13 *126:10 1.01436e-05
10 *3:13 *128:10 0.000143122
11 *3:13 *175:8 8.71886e-05
12 *3:13 *328:18 6.16439e-05
13 *3:13 *328:35 7.76267e-05
14 *3:13 *329:10 4.85126e-05
15 *3:13 *330:8 6.43433e-05
16 *3:13 *382:26 0.000685106
17 *3:13 *390:22 0
18 *3:13 *410:14 0
19 *3:13 *447:116 1.06805e-05
20 *3:13 *449:114 0.000485576
21 *3:13 *461:10 0.000616064
22 *3:13 *461:23 0.000272006
23 *3:13 *461:36 0.000244517
24 *3:13 *466:30 6.42355e-05
*RES
1 clk *3:13 39.5989 
2 *3:13 *1188:A 38 
*END

*D_NET *4 0.00532962
*CONN
*P day[0] O
*I *1236:X O *D sky130_fd_sc_hd__buf_2
*CAP
1 day[0] 0.000392504
2 *1236:X 5.62079e-05
3 *4:14 0.000708778
4 *4:8 0.000372483
5 day[0] day[1] 0.000264564
6 day[0] *16:17 0.0003265
7 day[0] *33:9 0
8 day[0] *35:23 0.000342548
9 *4:8 *18:17 0.000110922
10 *4:8 *32:25 5.45887e-05
11 *4:14 day[3] 0.00010337
12 *4:14 *5:14 0.00152554
13 *4:14 *6:12 0.000541676
14 *4:14 *415:14 0.000529934
*RES
1 *1236:X *4:8 39.5536 
2 *4:8 *4:14 47.2964 
3 *4:14 day[0] 13.734 
*END

*D_NET *5 0.00560996
*CONN
*P day[1] O
*I *1237:X O *D sky130_fd_sc_hd__buf_2
*CAP
1 day[1] 0.000301486
2 *1237:X 4.07576e-05
3 *5:14 0.00144782
4 *5:8 0.00118709
5 day[1] day[2] 0.000301087
6 day[1] *16:17 1.0402e-05
7 day[1] *32:11 0
8 day[1] *35:23 0.000184816
9 *5:8 *34:17 8.62876e-05
10 *5:8 *419:37 4.334e-05
11 *5:14 day[3] 0.000126675
12 *5:14 *415:14 9.00923e-05
13 day[0] day[1] 0.000264564
14 *4:14 *5:14 0.00152554
*RES
1 *1237:X *5:8 39.2014 
2 *5:8 *5:14 48.7257 
3 *5:14 day[1] 12.0591 
*END

*D_NET *6 0.00482266
*CONN
*P day[2] O
*I *1238:X O *D sky130_fd_sc_hd__buf_2
*CAP
1 day[2] 0.000258684
2 *1238:X 6.96504e-05
3 *6:12 0.000751154
4 *6:8 0.000562121
5 day[2] day[3] 0.000263875
6 day[2] *35:23 6.31392e-06
7 *6:8 *33:13 8.16356e-05
8 *6:8 *163:76 0.000166522
9 *6:12 *16:9 0
10 *6:12 *30:9 0
11 *6:12 *31:11 0.000401106
12 *6:12 *32:11 0.000433628
13 *6:12 *33:9 0
14 *6:12 *415:14 0.000910789
15 *6:12 *419:31 7.4416e-05
16 day[1] day[2] 0.000301087
17 *4:14 *6:12 0.000541676
*RES
1 *1238:X *6:8 40.2579 
2 *6:8 *6:12 35.6314 
3 *6:12 day[2] 25.0321 
*END

*D_NET *7 0.00391897
*CONN
*P day[3] O
*I *1239:X O *D sky130_fd_sc_hd__buf_2
*CAP
1 day[3] 0.0013442
2 *1239:X 3.56731e-05
3 *7:10 0.00137987
4 day[3] day[4] 0.000598996
5 day[3] *35:23 0
6 day[3] *283:18 5.0251e-05
7 day[3] *283:31 0
8 *7:10 *18:17 1.60633e-05
9 *7:10 *31:21 0
10 day[2] day[3] 0.000263875
11 *4:14 day[3] 0.00010337
12 *5:14 day[3] 0.000126675
*RES
1 *1239:X *7:10 46.6732 
2 *7:10 day[3] 3.93493 
*END

*D_NET *8 0.00255766
*CONN
*P day[4] O
*I *1240:X O *D sky130_fd_sc_hd__buf_2
*CAP
1 day[4] 0.00063823
2 *1240:X 5.7874e-05
3 *8:10 0.000696104
4 day[4] *9:11 0.000440753
5 day[4] *283:31 3.20693e-05
6 day[4] *283:45 5.84028e-05
7 *8:10 *1028:B 3.52294e-05
8 *8:10 *156:18 0
9 day[3] day[4] 0.000598996
*RES
1 *1240:X *8:10 47.0254 
2 *8:10 day[4] 2.9904 
*END

*D_NET *9 0.00360559
*CONN
*P day_num[0] I
*I *1207:A I *D sky130_fd_sc_hd__clkbuf_2
*CAP
1 day_num[0] 0.000820455
2 *1207:A 0
3 *9:11 0.000820455
4 *9:11 *881:C_N 3.33617e-05
5 *9:11 *10:13 0.000271153
6 *9:11 *115:45 3.12959e-05
7 *9:11 *161:16 1.14762e-05
8 *9:11 *161:28 0.000144628
9 *9:11 *254:10 0.000159911
10 *9:11 *283:31 0.000476177
11 *9:11 *283:45 0.000114363
12 *9:11 *406:10 0.000149794
13 *9:11 *406:18 0.000120086
14 *9:11 *422:103 1.16773e-05
15 day[4] *9:11 0.000440753
*RES
1 day_num[0] *9:11 30.9839 
2 *9:11 *1207:A 23 
*END

*D_NET *10 0.00264007
*CONN
*P day_num[1] I
*I *1218:A I *D sky130_fd_sc_hd__clkbuf_2
*CAP
1 day_num[1] 0.00059689
2 *1218:A 0
3 *10:13 0.00059689
4 *10:13 *881:A 0.000137651
5 *10:13 *890:A 0.000222104
6 *10:13 *1229:A 0.000187649
7 *10:13 *16:17 6.19764e-05
8 *10:13 *154:8 0.000305425
9 *10:13 *163:22 0.000241973
10 *10:13 *428:10 1.83564e-05
11 *10:13 *472:12 0
12 *9:11 *10:13 0.000271153
*RES
1 day_num[1] *10:13 33.3593 
2 *10:13 *1218:A 23 
*END

*D_NET *11 0.00097303
*CONN
*P day_num[2] I
*I *1229:A I *D sky130_fd_sc_hd__clkbuf_2
*CAP
1 day_num[2] 0.000254564
2 *1229:A 0.000254564
3 *1229:A month[0] 0
4 *1229:A *1230:A 0.000173297
5 *1229:A *16:17 9.28115e-05
6 *1229:A *158:8 1.01436e-05
7 *10:13 *1229:A 0.000187649
*RES
1 day_num[2] *1229:A 49.7157 
*END

*D_NET *12 0.000764192
*CONN
*P day_num[3] I
*I *1230:A I *D sky130_fd_sc_hd__dlymetal6s2s_1
*CAP
1 day_num[3] 0.000194502
2 *1230:A 0.000194502
3 *1230:A *1231:A 0.000161107
4 *1230:A *16:17 4.07834e-05
5 *1229:A *1230:A 0.000173297
*RES
1 day_num[3] *1230:A 48.5734 
*END

*D_NET *13 0.00077254
*CONN
*P day_num[4] I
*I *1231:A I *D sky130_fd_sc_hd__dlymetal6s2s_1
*CAP
1 day_num[4] 0.000239714
2 *1231:A 0.000239714
3 *1231:A month[0] 0.000127944
4 *1231:A *878:A_N 0
5 *1231:A *472:12 4.06172e-06
6 *1230:A *1231:A 0.000161107
*RES
1 day_num[4] *1231:A 48.5734 
*END

*D_NET *14 0.00162056
*CONN
*P dec[0] I
*I *1232:A I *D sky130_fd_sc_hd__buf_1
*CAP
1 dec[0] 0.000430812
2 *1232:A 0.000430812
3 *1232:A *985:B 0
4 *1232:A *19:15 0.000122241
5 *1232:A *30:17 0.000422271
6 *1232:A *50:11 4.26942e-06
7 *1232:A *150:19 9.92317e-05
8 *1232:A *450:8 0.000110922
9 *1232:A *465:38 0
*RES
1 dec[0] *1232:A 48.875 
*END

*D_NET *15 0.00282622
*CONN
*P dec[1] I
*I *1233:A I *D sky130_fd_sc_hd__buf_1
*CAP
1 dec[1] 0.000667414
2 *1233:A 4.70923e-05
3 *15:13 0.000714506
4 *1233:A *50:11 5.3304e-05
5 *1233:A *109:28 2.02872e-05
6 *1233:A *387:12 3.3577e-05
7 *15:13 *17:9 0
8 *15:13 *19:15 7.24507e-05
9 *15:13 *30:9 2.55219e-05
10 *15:13 *33:13 0
11 *15:13 *50:11 0.000258719
12 *15:13 *414:10 0.000182585
13 *15:13 *419:31 0.000738486
14 *15:13 *420:69 1.22803e-05
*RES
1 dec[1] *15:13 47.0893 
2 *15:13 *1233:A 39.0979 
*END

*D_NET *16 0.00740601
*CONN
*P dec[2] I
*I *1234:A I *D sky130_fd_sc_hd__buf_1
*CAP
1 dec[2] 0.000594904
2 *1234:A 0
3 *16:17 0.000859073
4 *16:9 0.00145398
5 *16:9 *19:11 0.000805327
6 *16:9 *30:9 9.69758e-05
7 *16:9 *33:9 0.00169007
8 *16:9 *34:9 0.000726778
9 *16:17 *878:A_N 3.70187e-05
10 *16:17 *883:A_N 0
11 *16:17 *885:B1 0.00016533
12 *16:17 *975:B1 0.000138447
13 *16:17 *115:45 0
14 *16:17 *158:8 0.000138179
15 *16:17 *162:10 0
16 *16:17 *428:10 0.000167452
17 *16:17 *465:79 0
18 day[0] *16:17 0.0003265
19 day[1] *16:17 1.0402e-05
20 *1229:A *16:17 9.28115e-05
21 *1230:A *16:17 4.07834e-05
22 *6:12 *16:9 0
23 *10:13 *16:17 6.19764e-05
*RES
1 dec[2] *16:9 40.375 
2 *16:9 *16:17 49.3264 
3 *16:17 *1234:A 23 
*END

*D_NET *17 0.00620494
*CONN
*P dec[3] I
*I *1235:A I *D sky130_fd_sc_hd__buf_1
*CAP
1 dec[3] 0.000847069
2 *1235:A 5.9964e-05
3 *17:21 0.000794192
4 *17:9 0.0015813
5 *1235:A *1004:A 0.000178517
6 *1235:A *1004:B 0.000180218
7 *17:9 *19:11 0.000673756
8 *17:9 *30:9 4.10345e-05
9 *17:9 *34:17 4.41821e-06
10 *17:9 *49:13 0.000189848
11 *17:9 *419:31 0
12 *17:21 *1154:SET_B 0.000165583
13 *17:21 *48:13 0.000319774
14 *17:21 *50:11 0
15 *17:21 *163:82 1.69668e-05
16 *17:21 *248:8 0
17 *17:21 *264:10 5.64492e-05
18 *17:21 *411:10 0.000707699
19 *17:21 *412:10 0
20 *17:21 *419:31 0
21 *17:21 *450:18 0.000262574
22 *17:21 *450:24 0.00012558
23 *15:13 *17:9 0
*RES
1 dec[3] *17:9 35.8593 
2 *17:9 *17:21 35.4657 
3 *17:21 *1235:A 40.0507 
*END

*D_NET *18 0.00451661
*CONN
*P dec[4] I
*I *1208:A I *D sky130_fd_sc_hd__buf_1
*CAP
1 dec[4] 0.00122709
2 *1208:A 0
3 *18:17 0.00122709
4 *18:17 *978:A2 0.000226983
5 *18:17 *1019:B 2.11157e-05
6 *18:17 *31:21 0
7 *18:17 *32:25 0.00013301
8 *18:17 *33:13 2.23126e-05
9 *18:17 *34:17 0
10 *18:17 *150:65 0.000113329
11 *18:17 *150:88 3.39192e-05
12 *18:17 *161:49 3.04869e-05
13 *18:17 *163:76 0.000117289
14 *18:17 *238:45 0.000119825
15 *18:17 *249:8 9.92391e-05
16 *18:17 *250:10 7.14436e-05
17 *18:17 *283:18 0.000150609
18 *18:17 *397:20 9.13698e-05
19 *18:17 *401:26 6.23095e-05
20 *18:17 *421:88 0.000174432
21 *18:17 *465:57 0.000467761
22 *4:8 *18:17 0.000110922
23 *7:10 *18:17 1.60633e-05
*RES
1 dec[4] *18:17 37.7947 
2 *18:17 *1208:A 38 
*END

*D_NET *19 0.0053221
*CONN
*P dec[5] I
*I *1209:A I *D sky130_fd_sc_hd__clkbuf_1
*CAP
1 dec[5] 0.000355363
2 *1209:A 0
3 *19:15 0.000740109
4 *19:11 0.00109547
5 *19:11 *30:9 0.000137394
6 *19:11 *34:9 0.00045166
7 *19:15 *875:C_N 1.40281e-05
8 *19:15 *972:B 2.82419e-06
9 *19:15 *983:A1 1.08118e-05
10 *19:15 *1002:C1 4.73716e-05
11 *19:15 *30:17 0
12 *19:15 *109:43 0.000182194
13 *19:15 *232:10 0
14 *19:15 *232:19 0
15 *19:15 *240:33 0.000145807
16 *19:15 *248:18 0
17 *19:15 *397:8 5.19702e-05
18 *19:15 *398:14 8.28736e-05
19 *19:15 *401:26 9.33529e-06
20 *19:15 *418:27 0.00020812
21 *19:15 *450:8 5.21127e-05
22 *19:15 *465:38 1.6873e-05
23 *19:15 *465:57 3.27534e-05
24 *19:15 *477:41 1.12487e-05
25 *1232:A *19:15 0.000122241
26 *15:13 *19:15 7.24507e-05
27 *16:9 *19:11 0.000805327
28 *17:9 *19:11 0.000673756
*RES
1 dec[5] *19:11 45.0179 
2 *19:11 *19:15 30.6393 
3 *19:15 *1209:A 23 
*END

*D_NET *20 0.000920966
*CONN
*P done_dec[0] O
*I *1241:X O *D sky130_fd_sc_hd__buf_2
*CAP
1 done_dec[0] 0.000460483
2 *1241:X 0.000460483
3 done_dec[0] done_dec[1] 0
4 done_dec[0] done_inc[4] 0
*RES
1 *1241:X done_dec[0] 47.0936 
*END

*D_NET *21 0.000861727
*CONN
*P done_dec[1] O
*I *1242:X O *D sky130_fd_sc_hd__buf_2
*CAP
1 done_dec[1] 0.000430864
2 *1242:X 0.000430864
3 done_dec[0] done_dec[1] 0
*RES
1 *1242:X done_dec[1] 46.6171 
*END

*D_NET *22 0.00100362
*CONN
*P done_dec[2] O
*I *1243:X O *D sky130_fd_sc_hd__buf_2
*CAP
1 done_dec[2] 0.00047431
2 *1243:X 0.00047431
3 done_dec[2] *1242:A 5.50049e-05
*RES
1 *1243:X done_dec[2] 47.86 
*END

*D_NET *23 0.00117249
*CONN
*P done_dec[3] O
*I *1244:X O *D sky130_fd_sc_hd__buf_2
*CAP
1 done_dec[3] 0.00044432
2 *1244:X 0.00044432
3 done_dec[3] done_dec[4] 0
4 done_dec[3] *1242:A 0.00014196
5 done_dec[3] *414:18 0.000141888
*RES
1 *1244:X done_dec[3] 47.57 
*END

*D_NET *24 0.00137247
*CONN
*P done_dec[4] O
*I *1245:X O *D sky130_fd_sc_hd__buf_2
*CAP
1 done_dec[4] 0.000507133
2 *1245:X 0.000507133
3 done_dec[4] *1245:A 5.41385e-05
4 done_dec[4] *46:11 4.94192e-05
5 done_dec[4] *410:10 0.00014196
6 done_dec[4] *414:18 0
7 done_dec[4] *424:10 4.78793e-05
8 done_dec[4] *427:10 6.48049e-05
9 done_dec[3] done_dec[4] 0
*RES